# CIF Gen by MATLAB
#email: parkman@buaa.edu.cn
## Date: 10-Mar-2021

# PARCHG.cif

_cell_length_a          181.945152
_cell_length_b          181.945152
_cell_length_c            7.575158
_cell_angle_alpha        90.000004
_cell_angle_beta         73.516928
_cell_angle_gamma       120.000000

loop_
_space_group_symop.magn_id
_space_group_symop.magn_operation_xyz
1   x,y,z,+1

loop_
_atom_site_label
_atom_site_type_symbol
_atom_site_fract_x
_atom_site_fract_y
_atom_site_fract_z
_atom_site_occupancy
  Bi  Bi 0.04530 0.04820 0.36895 1.0000
  Bi  Bi 0.04530 0.04820 0.36895 1.0000
  Bi  Bi 0.03329 0.03039 0.63104 1.0000
  Bi  Bi 0.03329 0.03039 0.63104 1.0000
  Bi  Bi 0.02748 0.02748 0.00000 1.0000
  Bi  Bi 0.02748 0.02748 0.00000 1.0000
  Bi  Bi 0.02748 0.02748 0.00000 1.0000
  Mo  Mo 0.02748 0.02748 0.00000 1.0000
  Bi  Bi 0.06892 0.04820 0.36895 1.0000
  Bi  Bi 0.06892 0.04820 0.36895 1.0000
  Bi  Bi 0.05692 0.03039 0.63104 1.0000
  Bi  Bi 0.05692 0.03039 0.63104 1.0000
  Bi  Bi 0.05111 0.02748 0.00000 1.0000
  Bi  Bi 0.05111 0.02748 0.00000 1.0000
  Mo  Mo 0.05111 0.02748 0.00000 1.0000
  Si  Si 0.05111 0.02748 0.00000 1.0000
  Bi  Bi 0.09255 0.04820 0.36895 1.0000
  Bi  Bi 0.09255 0.04820 0.36895 1.0000
  Bi  Bi 0.08054 0.03039 0.63104 1.0000
  Bi  Bi 0.08054 0.03039 0.63104 1.0000
  Bi  Bi 0.07473 0.02748 0.00000 1.0000
  Bi  Bi 0.07473 0.02748 0.00000 1.0000
  Mo  Mo 0.07473 0.02748 0.00000 1.0000
  Si  Si 0.07473 0.02748 0.00000 1.0000
  Bi  Bi 0.11617 0.04820 0.36895 1.0000
  Bi  Bi 0.11617 0.04820 0.36895 1.0000
  Bi  Bi 0.10417 0.03039 0.63104 1.0000
  Bi  Bi 0.10417 0.03039 0.63104 1.0000
  Bi  Bi 0.09836 0.02748 0.00000 1.0000
  Bi  Bi 0.09836 0.02748 0.00000 1.0000
  Mo  Mo 0.09836 0.02748 0.00000 1.0000
  Si  Si 0.09836 0.02748 0.00000 1.0000
  Bi  Bi 0.13980 0.04820 0.36895 1.0000
  Bi  Bi 0.13980 0.04820 0.36895 1.0000
  Bi  Bi 0.12780 0.03039 0.63104 1.0000
  Bi  Bi 0.12780 0.03039 0.63104 1.0000
  Bi  Bi 0.12198 0.02748 0.00000 1.0000
  Bi  Bi 0.12198 0.02748 0.00000 1.0000
  Mo  Mo 0.12198 0.02748 0.00000 1.0000
  Mo  Mo 0.12198 0.02748 0.00000 1.0000
  Bi  Bi 0.16343 0.04820 0.36895 1.0000
  Bi  Bi 0.16343 0.04820 0.36895 1.0000
  Bi  Bi 0.15142 0.03039 0.63104 1.0000
  Bi  Bi 0.15142 0.03039 0.63104 1.0000
  Bi  Bi 0.14561 0.02748 0.00000 1.0000
  Bi  Bi 0.14561 0.02748 0.00000 1.0000
  Bi  Bi 0.14561 0.02748 0.00000 1.0000
  Mo  Mo 0.14561 0.02748 0.00000 1.0000
  Bi  Bi 0.18705 0.04820 0.36895 1.0000
  Bi  Bi 0.18705 0.04820 0.36895 1.0000
  Bi  Bi 0.17505 0.03039 0.63104 1.0000
  Bi  Bi 0.17505 0.03039 0.63104 1.0000
  Bi  Bi 0.16924 0.02748 0.00000 1.0000
  Bi  Bi 0.16924 0.02748 0.00000 1.0000
  Bi  Bi 0.16924 0.02748 0.00000 1.0000
  Mo  Mo 0.16924 0.02748 0.00000 1.0000
  Bi  Bi 0.21068 0.04820 0.36895 1.0000
  Bi  Bi 0.21068 0.04820 0.36895 1.0000
  Bi  Bi 0.19867 0.03039 0.63104 1.0000
  Bi  Bi 0.19867 0.03039 0.63104 1.0000
  Bi  Bi 0.19286 0.02748 0.00000 1.0000
  Bi  Bi 0.19286 0.02748 0.00000 1.0000
  Bi  Bi 0.19286 0.02748 0.00000 1.0000
  Bi  Bi 0.19286 0.02748 0.00000 1.0000
  Bi  Bi 0.23430 0.04820 0.36895 1.0000
  Bi  Bi 0.23430 0.04820 0.36895 1.0000
  Bi  Bi 0.22230 0.03039 0.63104 1.0000
  Bi  Bi 0.22230 0.03039 0.63104 1.0000
  Bi  Bi 0.21649 0.02748 0.00000 1.0000
  Bi  Bi 0.21649 0.02748 0.00000 1.0000
  Bi  Bi 0.21649 0.02748 0.00000 1.0000
  Bi  Bi 0.21649 0.02748 0.00000 1.0000
  Bi  Bi 0.25793 0.04820 0.36895 1.0000
  Bi  Bi 0.25793 0.04820 0.36895 1.0000
  Bi  Bi 0.24593 0.03039 0.63104 1.0000
  Bi  Bi 0.24593 0.03039 0.63104 1.0000
  Bi  Bi 0.24011 0.02748 0.00000 1.0000
  Bi  Bi 0.24011 0.02748 0.00000 1.0000
  Bi  Bi 0.24011 0.02748 0.00000 1.0000
  Bi  Bi 0.24011 0.02748 0.00000 1.0000
  Bi  Bi 0.28156 0.04820 0.36895 1.0000
  Bi  Bi 0.28156 0.04820 0.36895 1.0000
  Bi  Bi 0.26955 0.03039 0.63104 1.0000
  Bi  Bi 0.26955 0.03039 0.63104 1.0000
  Bi  Bi 0.26374 0.02748 0.00000 1.0000
  Bi  Bi 0.26374 0.02748 0.00000 1.0000
  Bi  Bi 0.26374 0.02748 0.00000 1.0000
  Bi  Bi 0.26374 0.02748 0.00000 1.0000
  Bi  Bi 0.30518 0.04820 0.36895 1.0000
  Bi  Bi 0.30518 0.04820 0.36895 1.0000
  Bi  Bi 0.29318 0.03039 0.63104 1.0000
  Bi  Bi 0.29318 0.03039 0.63104 1.0000
  Bi  Bi 0.28737 0.02748 0.00000 1.0000
  Bi  Bi 0.28737 0.02748 0.00000 1.0000
  Bi  Bi 0.28737 0.02748 0.00000 1.0000
  Bi  Bi 0.28737 0.02748 0.00000 1.0000
  Bi  Bi 0.32881 0.04820 0.36895 1.0000
  Bi  Bi 0.32881 0.04820 0.36895 1.0000
  Bi  Bi 0.31680 0.03039 0.63104 1.0000
  Bi  Bi 0.31680 0.03039 0.63104 1.0000
  Bi  Bi 0.31099 0.02748 0.00000 1.0000
  Bi  Bi 0.31099 0.02748 0.00000 1.0000
  Bi  Bi 0.31099 0.02748 0.00000 1.0000
  Bi  Bi 0.31099 0.02748 0.00000 1.0000
  Bi  Bi 0.35243 0.04820 0.36895 1.0000
  Bi  Bi 0.35243 0.04820 0.36895 1.0000
  Bi  Bi 0.34043 0.03039 0.63104 1.0000
  Bi  Bi 0.34043 0.03039 0.63104 1.0000
  Bi  Bi 0.33462 0.02748 0.00000 1.0000
  Bi  Bi 0.33462 0.02748 0.00000 1.0000
  Bi  Bi 0.33462 0.02748 0.00000 1.0000
  Bi  Bi 0.33462 0.02748 0.00000 1.0000
  Bi  Bi 0.37606 0.04820 0.36895 1.0000
  Bi  Bi 0.37606 0.04820 0.36895 1.0000
  Bi  Bi 0.36406 0.03039 0.63104 1.0000
  Bi  Bi 0.36406 0.03039 0.63104 1.0000
  Bi  Bi 0.35824 0.02748 0.00000 1.0000
  Bi  Bi 0.35824 0.02748 0.00000 1.0000
  Bi  Bi 0.35824 0.02748 0.00000 1.0000
  Bi  Bi 0.35824 0.02748 0.00000 1.0000
  Bi  Bi 0.39968 0.04820 0.36895 1.0000
  Bi  Bi 0.39968 0.04820 0.36895 1.0000
  Bi  Bi 0.38768 0.03039 0.63104 1.0000
  Bi  Bi 0.38768 0.03039 0.63104 1.0000
  Bi  Bi 0.38187 0.02748 0.00000 1.0000
  Bi  Bi 0.38187 0.02748 0.00000 1.0000
  Bi  Bi 0.38187 0.02748 0.00000 1.0000
  Bi  Bi 0.38187 0.02748 0.00000 1.0000
  Bi  Bi 0.42331 0.04820 0.36895 1.0000
  Bi  Bi 0.42331 0.04820 0.36895 1.0000
  Bi  Bi 0.41131 0.03039 0.63104 1.0000
  Bi  Bi 0.41131 0.03039 0.63104 1.0000
  Bi  Bi 0.40550 0.02748 0.00000 1.0000
  Bi  Bi 0.40550 0.02748 0.00000 1.0000
  Bi  Bi 0.40550 0.02748 0.00000 1.0000
  Bi  Bi 0.40550 0.02748 0.00000 1.0000
  Bi  Bi 0.44694 0.04820 0.36895 1.0000
  Bi  Bi 0.44694 0.04820 0.36895 1.0000
  Bi  Bi 0.43493 0.03039 0.63104 1.0000
  Bi  Bi 0.43493 0.03039 0.63104 1.0000
  Bi  Bi 0.42912 0.02748 0.00000 1.0000
  Bi  Bi 0.42912 0.02748 0.00000 1.0000
  Bi  Bi 0.42912 0.02748 0.00000 1.0000
  Bi  Bi 0.42912 0.02748 0.00000 1.0000
  Bi  Bi 0.47056 0.04820 0.36895 1.0000
  Bi  Bi 0.47056 0.04820 0.36895 1.0000
  Bi  Bi 0.45856 0.03039 0.63104 1.0000
  Bi  Bi 0.45856 0.03039 0.63104 1.0000
  Bi  Bi 0.45275 0.02748 0.00000 1.0000
  Bi  Bi 0.45275 0.02748 0.00000 1.0000
  Bi  Bi 0.45275 0.02748 0.00000 1.0000
  Bi  Bi 0.45275 0.02748 0.00000 1.0000
  Bi  Bi 0.49419 0.04820 0.36895 1.0000
  Bi  Bi 0.49419 0.04820 0.36895 1.0000
  Bi  Bi 0.48219 0.03039 0.63104 1.0000
  Bi  Bi 0.48219 0.03039 0.63104 1.0000
  Bi  Bi 0.47637 0.02748 0.00000 1.0000
  Bi  Bi 0.47637 0.02748 0.00000 1.0000
  Bi  Bi 0.47637 0.02748 0.00000 1.0000
  Bi  Bi 0.47637 0.02748 0.00000 1.0000
  Bi  Bi 0.51781 0.04820 0.36895 1.0000
  Bi  Bi 0.51781 0.04820 0.36895 1.0000
  Bi  Bi 0.50581 0.03039 0.63104 1.0000
  Bi  Bi 0.50581 0.03039 0.63104 1.0000
  Bi  Bi 0.50000 0.02748 0.00000 1.0000
  Bi  Bi 0.50000 0.02748 0.00000 1.0000
  Bi  Bi 0.50000 0.02748 0.00000 1.0000
  Bi  Bi 0.50000 0.02748 0.00000 1.0000
  Bi  Bi 0.54144 0.04820 0.36895 1.0000
  Bi  Bi 0.54144 0.04820 0.36895 1.0000
  Bi  Bi 0.52944 0.03039 0.63104 1.0000
  Bi  Bi 0.52944 0.03039 0.63104 1.0000
  Bi  Bi 0.52363 0.02748 0.00000 1.0000
  Bi  Bi 0.52363 0.02748 0.00000 1.0000
  Bi  Bi 0.52363 0.02748 0.00000 1.0000
  Bi  Bi 0.52363 0.02748 0.00000 1.0000
  Bi  Bi 0.56507 0.04820 0.36895 1.0000
  Bi  Bi 0.56507 0.04820 0.36895 1.0000
  Bi  Bi 0.55306 0.03039 0.63104 1.0000
  Bi  Bi 0.55306 0.03039 0.63104 1.0000
  Bi  Bi 0.54725 0.02748 0.00000 1.0000
  Bi  Bi 0.54725 0.02748 0.00000 1.0000
  Bi  Bi 0.54725 0.02748 0.00000 1.0000
  Bi  Bi 0.54725 0.02748 0.00000 1.0000
  Bi  Bi 0.58869 0.04820 0.36895 1.0000
  Bi  Bi 0.58869 0.04820 0.36895 1.0000
  Bi  Bi 0.57669 0.03039 0.63104 1.0000
  Bi  Bi 0.57669 0.03039 0.63104 1.0000
  Bi  Bi 0.57088 0.02748 0.00000 1.0000
  Bi  Bi 0.57088 0.02748 0.00000 1.0000
  Bi  Bi 0.57088 0.02748 0.00000 1.0000
  Bi  Bi 0.57088 0.02748 0.00000 1.0000
  Bi  Bi 0.61232 0.04820 0.36895 1.0000
  Bi  Bi 0.61232 0.04820 0.36895 1.0000
  Bi  Bi 0.60032 0.03039 0.63104 1.0000
  Bi  Bi 0.60032 0.03039 0.63104 1.0000
  Bi  Bi 0.59450 0.02748 0.00000 1.0000
  Bi  Bi 0.59450 0.02748 0.00000 1.0000
  Bi  Bi 0.59450 0.02748 0.00000 1.0000
  Bi  Bi 0.59450 0.02748 0.00000 1.0000
  Bi  Bi 0.63594 0.04820 0.36895 1.0000
  Bi  Bi 0.63594 0.04820 0.36895 1.0000
  Bi  Bi 0.62394 0.03039 0.63104 1.0000
  Bi  Bi 0.62394 0.03039 0.63104 1.0000
  Bi  Bi 0.61813 0.02748 0.00000 1.0000
  Bi  Bi 0.61813 0.02748 0.00000 1.0000
  Bi  Bi 0.61813 0.02748 0.00000 1.0000
  Bi  Bi 0.61813 0.02748 0.00000 1.0000
  Bi  Bi 0.65957 0.04820 0.36895 1.0000
  Bi  Bi 0.65957 0.04820 0.36895 1.0000
  Bi  Bi 0.64757 0.03039 0.63104 1.0000
  Bi  Bi 0.64757 0.03039 0.63104 1.0000
  Bi  Bi 0.64176 0.02748 0.00000 1.0000
  Bi  Bi 0.64176 0.02748 0.00000 1.0000
  Bi  Bi 0.64176 0.02748 0.00000 1.0000
  Bi  Bi 0.64176 0.02748 0.00000 1.0000
  Bi  Bi 0.68320 0.04820 0.36895 1.0000
  Bi  Bi 0.68320 0.04820 0.36895 1.0000
  Bi  Bi 0.67119 0.03039 0.63104 1.0000
  Bi  Bi 0.67119 0.03039 0.63104 1.0000
  Bi  Bi 0.66538 0.02748 0.00000 1.0000
  Bi  Bi 0.66538 0.02748 0.00000 1.0000
  Bi  Bi 0.66538 0.02748 0.00000 1.0000
  Bi  Bi 0.66538 0.02748 0.00000 1.0000
  Bi  Bi 0.70682 0.04820 0.36895 1.0000
  Bi  Bi 0.70682 0.04820 0.36895 1.0000
  Bi  Bi 0.69482 0.03039 0.63104 1.0000
  Bi  Bi 0.69482 0.03039 0.63104 1.0000
  Bi  Bi 0.68901 0.02748 0.00000 1.0000
  Bi  Bi 0.68901 0.02748 0.00000 1.0000
  Bi  Bi 0.68901 0.02748 0.00000 1.0000
  Bi  Bi 0.68901 0.02748 0.00000 1.0000
  Bi  Bi 0.73045 0.04820 0.36895 1.0000
  Bi  Bi 0.73045 0.04820 0.36895 1.0000
  Bi  Bi 0.71844 0.03039 0.63104 1.0000
  Bi  Bi 0.71844 0.03039 0.63104 1.0000
  Bi  Bi 0.71263 0.02748 0.00000 1.0000
  Bi  Bi 0.71263 0.02748 0.00000 1.0000
  Bi  Bi 0.71263 0.02748 0.00000 1.0000
  Bi  Bi 0.71263 0.02748 0.00000 1.0000
  Bi  Bi 0.75407 0.04820 0.36895 1.0000
  Bi  Bi 0.75407 0.04820 0.36895 1.0000
  Bi  Bi 0.74207 0.03039 0.63104 1.0000
  Bi  Bi 0.74207 0.03039 0.63104 1.0000
  Bi  Bi 0.73626 0.02748 0.00000 1.0000
  Bi  Bi 0.73626 0.02748 0.00000 1.0000
  Bi  Bi 0.73626 0.02748 0.00000 1.0000
  Bi  Bi 0.73626 0.02748 0.00000 1.0000
  Bi  Bi 0.77770 0.04820 0.36895 1.0000
  Bi  Bi 0.77770 0.04820 0.36895 1.0000
  Bi  Bi 0.76570 0.03039 0.63104 1.0000
  Bi  Bi 0.76570 0.03039 0.63104 1.0000
  Bi  Bi 0.75989 0.02748 0.00000 1.0000
  Bi  Bi 0.75989 0.02748 0.00000 1.0000
  Bi  Bi 0.75989 0.02748 0.00000 1.0000
  Bi  Bi 0.75989 0.02748 0.00000 1.0000
  Bi  Bi 0.80133 0.04820 0.36895 1.0000
  Bi  Bi 0.80133 0.04820 0.36895 1.0000
  Bi  Bi 0.78932 0.03039 0.63104 1.0000
  Bi  Bi 0.78932 0.03039 0.63104 1.0000
  Bi  Bi 0.78351 0.02748 0.00000 1.0000
  Bi  Bi 0.78351 0.02748 0.00000 1.0000
  Bi  Bi 0.78351 0.02748 0.00000 1.0000
  Bi  Bi 0.78351 0.02748 0.00000 1.0000
  Bi  Bi 0.82495 0.04820 0.36895 1.0000
  Bi  Bi 0.82495 0.04820 0.36895 1.0000
  Bi  Bi 0.81295 0.03039 0.63104 1.0000
  Bi  Bi 0.81295 0.03039 0.63104 1.0000
  Bi  Bi 0.80714 0.02748 0.00000 1.0000
  Bi  Bi 0.80714 0.02748 0.00000 1.0000
  Bi  Bi 0.80714 0.02748 0.00000 1.0000
  Bi  Bi 0.80714 0.02748 0.00000 1.0000
  Bi  Bi 0.84858 0.04820 0.36895 1.0000
  Bi  Bi 0.84858 0.04820 0.36895 1.0000
  Bi  Bi 0.83657 0.03039 0.63104 1.0000
  Bi  Bi 0.83657 0.03039 0.63104 1.0000
  Bi  Bi 0.83076 0.02748 0.00000 1.0000
  Bi  Bi 0.83076 0.02748 0.00000 1.0000
  Bi  Bi 0.83076 0.02748 0.00000 1.0000
  Bi  Bi 0.83076 0.02748 0.00000 1.0000
  Bi  Bi 0.87220 0.04820 0.36895 1.0000
  Bi  Bi 0.87220 0.04820 0.36895 1.0000
  Bi  Bi 0.86020 0.03039 0.63104 1.0000
  Bi  Bi 0.86020 0.03039 0.63104 1.0000
  Bi  Bi 0.85439 0.02748 0.00000 1.0000
  Bi  Bi 0.85439 0.02748 0.00000 1.0000
  Bi  Bi 0.85439 0.02748 0.00000 1.0000
  Bi  Bi 0.85439 0.02748 0.00000 1.0000
  Bi  Bi 0.89583 0.04820 0.36895 1.0000
  Bi  Bi 0.89583 0.04820 0.36895 1.0000
  Bi  Bi 0.88383 0.03039 0.63104 1.0000
  Bi  Bi 0.88383 0.03039 0.63104 1.0000
  Bi  Bi 0.87802 0.02748 0.00000 1.0000
  Bi  Bi 0.87802 0.02748 0.00000 1.0000
  Bi  Bi 0.87802 0.02748 0.00000 1.0000
  Bi  Bi 0.87802 0.02748 0.00000 1.0000
  Bi  Bi 0.91946 0.04820 0.36895 1.0000
  Bi  Bi 0.91946 0.04820 0.36895 1.0000
  Bi  Bi 0.90745 0.03039 0.63104 1.0000
  Bi  Bi 0.90745 0.03039 0.63104 1.0000
  Bi  Bi 0.90164 0.02748 0.00000 1.0000
  Bi  Bi 0.90164 0.02748 0.00000 1.0000
  Bi  Bi 0.90164 0.02748 0.00000 1.0000
  Bi  Bi 0.90164 0.02748 0.00000 1.0000
  Bi  Bi 0.94308 0.04820 0.36895 1.0000
  Bi  Bi 0.94308 0.04820 0.36895 1.0000
  Bi  Bi 0.93108 0.03039 0.63104 1.0000
  Bi  Bi 0.93108 0.03039 0.63104 1.0000
  Bi  Bi 0.92527 0.02748 0.00000 1.0000
  Bi  Bi 0.92527 0.02748 0.00000 1.0000
  Bi  Bi 0.92527 0.02748 0.00000 1.0000
  Bi  Bi 0.92527 0.02748 0.00000 1.0000
  Bi  Bi 0.96671 0.04820 0.36895 1.0000
  Bi  Bi 0.96671 0.04820 0.36895 1.0000
  Bi  Bi 0.95470 0.03039 0.63104 1.0000
  Bi  Bi 0.95470 0.03039 0.63104 1.0000
  Bi  Bi 0.94889 0.02748 0.00000 1.0000
  Bi  Bi 0.94889 0.02748 0.00000 1.0000
  Bi  Bi 0.94889 0.02748 0.00000 1.0000
  Bi  Bi 0.94889 0.02748 0.00000 1.0000
  Bi  Bi 0.04530 0.07183 0.36895 1.0000
  Bi  Bi 0.04530 0.07183 0.36895 1.0000
  Bi  Bi 0.03329 0.05401 0.63104 1.0000
  Bi  Bi 0.03329 0.05401 0.63104 1.0000
  Bi  Bi 0.02748 0.05111 0.00000 1.0000
  Bi  Bi 0.02748 0.05111 0.00000 1.0000
  Bi  Bi 0.02748 0.05111 0.00000 1.0000
  Mo  Mo 0.02748 0.05111 0.00000 1.0000
  Bi  Bi 0.06892 0.07183 0.36895 1.0000
  Bi  Bi 0.06892 0.07183 0.36895 1.0000
  Bi  Bi 0.05692 0.05401 0.63104 1.0000
  Bi  Bi 0.05692 0.05401 0.63104 1.0000
  Mo  Mo 0.05111 0.05111 0.00000 1.0000
  Mo  Mo 0.05111 0.05111 0.00000 1.0000
  Si  Si 0.05111 0.05111 0.00000 1.0000
  Rb  Rb 0.05111 0.05111 0.00000 1.0000
  Bi  Bi 0.09255 0.07183 0.36895 1.0000
  Mo  Mo 0.09255 0.07183 0.36895 1.0000
  Bi  Bi 0.08054 0.05401 0.63104 1.0000
  Mo  Mo 0.08054 0.05401 0.63104 1.0000
  Mo  Mo 0.07473 0.05111 0.00000 1.0000
  Si  Si 0.07473 0.05111 0.00000 1.0000
  Si  Si 0.07473 0.05111 0.00000 1.0000
  Rb  Rb 0.07473 0.05111 0.00000 1.0000
  Bi  Bi 0.11617 0.07183 0.36895 1.0000
  Mo  Mo 0.11617 0.07183 0.36895 1.0000
  Bi  Bi 0.10417 0.05401 0.63104 1.0000
  Mo  Mo 0.10417 0.05401 0.63104 1.0000
  Mo  Mo 0.09836 0.05111 0.00000 1.0000
  Si  Si 0.09836 0.05111 0.00000 1.0000
  Si  Si 0.09836 0.05111 0.00000 1.0000
  Rb  Rb 0.09836 0.05111 0.00000 1.0000
  Bi  Bi 0.13980 0.07183 0.36895 1.0000
  Mo  Mo 0.13980 0.07183 0.36895 1.0000
  Bi  Bi 0.12780 0.05401 0.63104 1.0000
  Mo  Mo 0.12780 0.05401 0.63104 1.0000
  Mo  Mo 0.12198 0.05111 0.00000 1.0000
  Mo  Mo 0.12198 0.05111 0.00000 1.0000
  Si  Si 0.12198 0.05111 0.00000 1.0000
  Rb  Rb 0.12198 0.05111 0.00000 1.0000
  Bi  Bi 0.16343 0.07183 0.36895 1.0000
  Mo  Mo 0.16343 0.07183 0.36895 1.0000
  Bi  Bi 0.15142 0.05401 0.63104 1.0000
  Mo  Mo 0.15142 0.05401 0.63104 1.0000
  Mo  Mo 0.14561 0.05111 0.00000 1.0000
  Mo  Mo 0.14561 0.05111 0.00000 1.0000
  Mo  Mo 0.14561 0.05111 0.00000 1.0000
  Si  Si 0.14561 0.05111 0.00000 1.0000
  Bi  Bi 0.18705 0.07183 0.36895 1.0000
  Bi  Bi 0.18705 0.07183 0.36895 1.0000
  Bi  Bi 0.17505 0.05401 0.63104 1.0000
  Bi  Bi 0.17505 0.05401 0.63104 1.0000
  Mo  Mo 0.16924 0.05111 0.00000 1.0000
  Mo  Mo 0.16924 0.05111 0.00000 1.0000
  Mo  Mo 0.16924 0.05111 0.00000 1.0000
  Si  Si 0.16924 0.05111 0.00000 1.0000
  Bi  Bi 0.21068 0.07183 0.36895 1.0000
  Bi  Bi 0.21068 0.07183 0.36895 1.0000
  Bi  Bi 0.19867 0.05401 0.63104 1.0000
  Bi  Bi 0.19867 0.05401 0.63104 1.0000
  Bi  Bi 0.19286 0.05111 0.00000 1.0000
  Mo  Mo 0.19286 0.05111 0.00000 1.0000
  Mo  Mo 0.19286 0.05111 0.00000 1.0000
  Mo  Mo 0.19286 0.05111 0.00000 1.0000
  Bi  Bi 0.23430 0.07183 0.36895 1.0000
  Bi  Bi 0.23430 0.07183 0.36895 1.0000
  Bi  Bi 0.22230 0.05401 0.63104 1.0000
  Bi  Bi 0.22230 0.05401 0.63104 1.0000
  Bi  Bi 0.21649 0.05111 0.00000 1.0000
  Bi  Bi 0.21649 0.05111 0.00000 1.0000
  Bi  Bi 0.21649 0.05111 0.00000 1.0000
  Mo  Mo 0.21649 0.05111 0.00000 1.0000
  Bi  Bi 0.25793 0.07183 0.36895 1.0000
  Bi  Bi 0.25793 0.07183 0.36895 1.0000
  Bi  Bi 0.24593 0.05401 0.63104 1.0000
  Bi  Bi 0.24593 0.05401 0.63104 1.0000
  Bi  Bi 0.24011 0.05111 0.00000 1.0000
  Bi  Bi 0.24011 0.05111 0.00000 1.0000
  Bi  Bi 0.24011 0.05111 0.00000 1.0000
  Bi  Bi 0.24011 0.05111 0.00000 1.0000
  Bi  Bi 0.28156 0.07183 0.36895 1.0000
  Bi  Bi 0.28156 0.07183 0.36895 1.0000
  Bi  Bi 0.26955 0.05401 0.63104 1.0000
  Bi  Bi 0.26955 0.05401 0.63104 1.0000
  Bi  Bi 0.26374 0.05111 0.00000 1.0000
  Bi  Bi 0.26374 0.05111 0.00000 1.0000
  Bi  Bi 0.26374 0.05111 0.00000 1.0000
  Bi  Bi 0.26374 0.05111 0.00000 1.0000
  Bi  Bi 0.30518 0.07183 0.36895 1.0000
  Bi  Bi 0.30518 0.07183 0.36895 1.0000
  Bi  Bi 0.29318 0.05401 0.63104 1.0000
  Bi  Bi 0.29318 0.05401 0.63104 1.0000
  Bi  Bi 0.28737 0.05111 0.00000 1.0000
  Bi  Bi 0.28737 0.05111 0.00000 1.0000
  Bi  Bi 0.28737 0.05111 0.00000 1.0000
  Bi  Bi 0.28737 0.05111 0.00000 1.0000
  Bi  Bi 0.32881 0.07183 0.36895 1.0000
  Bi  Bi 0.32881 0.07183 0.36895 1.0000
  Bi  Bi 0.31680 0.05401 0.63104 1.0000
  Bi  Bi 0.31680 0.05401 0.63104 1.0000
  Bi  Bi 0.31099 0.05111 0.00000 1.0000
  Bi  Bi 0.31099 0.05111 0.00000 1.0000
  Bi  Bi 0.31099 0.05111 0.00000 1.0000
  Bi  Bi 0.31099 0.05111 0.00000 1.0000
  Bi  Bi 0.35243 0.07183 0.36895 1.0000
  Bi  Bi 0.35243 0.07183 0.36895 1.0000
  Bi  Bi 0.34043 0.05401 0.63104 1.0000
  Bi  Bi 0.34043 0.05401 0.63104 1.0000
  Bi  Bi 0.33462 0.05111 0.00000 1.0000
  Bi  Bi 0.33462 0.05111 0.00000 1.0000
  Bi  Bi 0.33462 0.05111 0.00000 1.0000
  Bi  Bi 0.33462 0.05111 0.00000 1.0000
  Bi  Bi 0.37606 0.07183 0.36895 1.0000
  Bi  Bi 0.37606 0.07183 0.36895 1.0000
  Bi  Bi 0.36406 0.05401 0.63104 1.0000
  Bi  Bi 0.36406 0.05401 0.63104 1.0000
  Bi  Bi 0.35824 0.05111 0.00000 1.0000
  Bi  Bi 0.35824 0.05111 0.00000 1.0000
  Bi  Bi 0.35824 0.05111 0.00000 1.0000
  Bi  Bi 0.35824 0.05111 0.00000 1.0000
  Bi  Bi 0.39968 0.07183 0.36895 1.0000
  Bi  Bi 0.39968 0.07183 0.36895 1.0000
  Bi  Bi 0.38768 0.05401 0.63104 1.0000
  Bi  Bi 0.38768 0.05401 0.63104 1.0000
  Bi  Bi 0.38187 0.05111 0.00000 1.0000
  Bi  Bi 0.38187 0.05111 0.00000 1.0000
  Bi  Bi 0.38187 0.05111 0.00000 1.0000
  Bi  Bi 0.38187 0.05111 0.00000 1.0000
  Bi  Bi 0.42331 0.07183 0.36895 1.0000
  Bi  Bi 0.42331 0.07183 0.36895 1.0000
  Bi  Bi 0.41131 0.05401 0.63104 1.0000
  Bi  Bi 0.41131 0.05401 0.63104 1.0000
  Bi  Bi 0.40550 0.05111 0.00000 1.0000
  Bi  Bi 0.40550 0.05111 0.00000 1.0000
  Bi  Bi 0.40550 0.05111 0.00000 1.0000
  Bi  Bi 0.40550 0.05111 0.00000 1.0000
  Bi  Bi 0.44694 0.07183 0.36895 1.0000
  Bi  Bi 0.44694 0.07183 0.36895 1.0000
  Bi  Bi 0.43493 0.05401 0.63104 1.0000
  Bi  Bi 0.43493 0.05401 0.63104 1.0000
  Bi  Bi 0.42912 0.05111 0.00000 1.0000
  Bi  Bi 0.42912 0.05111 0.00000 1.0000
  Bi  Bi 0.42912 0.05111 0.00000 1.0000
  Bi  Bi 0.42912 0.05111 0.00000 1.0000
  Bi  Bi 0.47056 0.07183 0.36895 1.0000
  Bi  Bi 0.47056 0.07183 0.36895 1.0000
  Bi  Bi 0.45856 0.05401 0.63104 1.0000
  Bi  Bi 0.45856 0.05401 0.63104 1.0000
  Bi  Bi 0.45275 0.05111 0.00000 1.0000
  Bi  Bi 0.45275 0.05111 0.00000 1.0000
  Bi  Bi 0.45275 0.05111 0.00000 1.0000
  Bi  Bi 0.45275 0.05111 0.00000 1.0000
  Bi  Bi 0.49419 0.07183 0.36895 1.0000
  Bi  Bi 0.49419 0.07183 0.36895 1.0000
  Bi  Bi 0.48219 0.05401 0.63104 1.0000
  Bi  Bi 0.48219 0.05401 0.63104 1.0000
  Bi  Bi 0.47637 0.05111 0.00000 1.0000
  Bi  Bi 0.47637 0.05111 0.00000 1.0000
  Bi  Bi 0.47637 0.05111 0.00000 1.0000
  Bi  Bi 0.47637 0.05111 0.00000 1.0000
  Bi  Bi 0.51781 0.07183 0.36895 1.0000
  Bi  Bi 0.51781 0.07183 0.36895 1.0000
  Bi  Bi 0.50581 0.05401 0.63104 1.0000
  Bi  Bi 0.50581 0.05401 0.63104 1.0000
  Bi  Bi 0.50000 0.05111 0.00000 1.0000
  Bi  Bi 0.50000 0.05111 0.00000 1.0000
  Bi  Bi 0.50000 0.05111 0.00000 1.0000
  Bi  Bi 0.50000 0.05111 0.00000 1.0000
  Bi  Bi 0.54144 0.07183 0.36895 1.0000
  Bi  Bi 0.54144 0.07183 0.36895 1.0000
  Bi  Bi 0.52944 0.05401 0.63104 1.0000
  Bi  Bi 0.52944 0.05401 0.63104 1.0000
  Bi  Bi 0.52363 0.05111 0.00000 1.0000
  Bi  Bi 0.52363 0.05111 0.00000 1.0000
  Bi  Bi 0.52363 0.05111 0.00000 1.0000
  Bi  Bi 0.52363 0.05111 0.00000 1.0000
  Bi  Bi 0.56507 0.07183 0.36895 1.0000
  Bi  Bi 0.56507 0.07183 0.36895 1.0000
  Bi  Bi 0.55306 0.05401 0.63104 1.0000
  Bi  Bi 0.55306 0.05401 0.63104 1.0000
  Bi  Bi 0.54725 0.05111 0.00000 1.0000
  Bi  Bi 0.54725 0.05111 0.00000 1.0000
  Bi  Bi 0.54725 0.05111 0.00000 1.0000
  Bi  Bi 0.54725 0.05111 0.00000 1.0000
  Bi  Bi 0.58869 0.07183 0.36895 1.0000
  Bi  Bi 0.58869 0.07183 0.36895 1.0000
  Bi  Bi 0.57669 0.05401 0.63104 1.0000
  Bi  Bi 0.57669 0.05401 0.63104 1.0000
  Bi  Bi 0.57088 0.05111 0.00000 1.0000
  Bi  Bi 0.57088 0.05111 0.00000 1.0000
  Bi  Bi 0.57088 0.05111 0.00000 1.0000
  Bi  Bi 0.57088 0.05111 0.00000 1.0000
  Bi  Bi 0.61232 0.07183 0.36895 1.0000
  Bi  Bi 0.61232 0.07183 0.36895 1.0000
  Bi  Bi 0.60032 0.05401 0.63104 1.0000
  Bi  Bi 0.60032 0.05401 0.63104 1.0000
  Bi  Bi 0.59450 0.05111 0.00000 1.0000
  Bi  Bi 0.59450 0.05111 0.00000 1.0000
  Bi  Bi 0.59450 0.05111 0.00000 1.0000
  Bi  Bi 0.59450 0.05111 0.00000 1.0000
  Bi  Bi 0.63594 0.07183 0.36895 1.0000
  Bi  Bi 0.63594 0.07183 0.36895 1.0000
  Bi  Bi 0.62394 0.05401 0.63104 1.0000
  Bi  Bi 0.62394 0.05401 0.63104 1.0000
  Bi  Bi 0.61813 0.05111 0.00000 1.0000
  Bi  Bi 0.61813 0.05111 0.00000 1.0000
  Bi  Bi 0.61813 0.05111 0.00000 1.0000
  Bi  Bi 0.61813 0.05111 0.00000 1.0000
  Bi  Bi 0.65957 0.07183 0.36895 1.0000
  Bi  Bi 0.65957 0.07183 0.36895 1.0000
  Bi  Bi 0.64757 0.05401 0.63104 1.0000
  Bi  Bi 0.64757 0.05401 0.63104 1.0000
  Bi  Bi 0.64176 0.05111 0.00000 1.0000
  Bi  Bi 0.64176 0.05111 0.00000 1.0000
  Bi  Bi 0.64176 0.05111 0.00000 1.0000
  Bi  Bi 0.64176 0.05111 0.00000 1.0000
  Bi  Bi 0.68320 0.07183 0.36895 1.0000
  Bi  Bi 0.68320 0.07183 0.36895 1.0000
  Bi  Bi 0.67119 0.05401 0.63104 1.0000
  Bi  Bi 0.67119 0.05401 0.63104 1.0000
  Bi  Bi 0.66538 0.05111 0.00000 1.0000
  Bi  Bi 0.66538 0.05111 0.00000 1.0000
  Bi  Bi 0.66538 0.05111 0.00000 1.0000
  Bi  Bi 0.66538 0.05111 0.00000 1.0000
  Bi  Bi 0.70682 0.07183 0.36895 1.0000
  Bi  Bi 0.70682 0.07183 0.36895 1.0000
  Bi  Bi 0.69482 0.05401 0.63104 1.0000
  Bi  Bi 0.69482 0.05401 0.63104 1.0000
  Bi  Bi 0.68901 0.05111 0.00000 1.0000
  Bi  Bi 0.68901 0.05111 0.00000 1.0000
  Bi  Bi 0.68901 0.05111 0.00000 1.0000
  Bi  Bi 0.68901 0.05111 0.00000 1.0000
  Bi  Bi 0.73045 0.07183 0.36895 1.0000
  Bi  Bi 0.73045 0.07183 0.36895 1.0000
  Bi  Bi 0.71844 0.05401 0.63104 1.0000
  Bi  Bi 0.71844 0.05401 0.63104 1.0000
  Bi  Bi 0.71263 0.05111 0.00000 1.0000
  Bi  Bi 0.71263 0.05111 0.00000 1.0000
  Bi  Bi 0.71263 0.05111 0.00000 1.0000
  Bi  Bi 0.71263 0.05111 0.00000 1.0000
  Bi  Bi 0.75407 0.07183 0.36895 1.0000
  Bi  Bi 0.75407 0.07183 0.36895 1.0000
  Bi  Bi 0.74207 0.05401 0.63104 1.0000
  Bi  Bi 0.74207 0.05401 0.63104 1.0000
  Bi  Bi 0.73626 0.05111 0.00000 1.0000
  Bi  Bi 0.73626 0.05111 0.00000 1.0000
  Bi  Bi 0.73626 0.05111 0.00000 1.0000
  Bi  Bi 0.73626 0.05111 0.00000 1.0000
  Bi  Bi 0.77770 0.07183 0.36895 1.0000
  Bi  Bi 0.77770 0.07183 0.36895 1.0000
  Bi  Bi 0.76570 0.05401 0.63104 1.0000
  Bi  Bi 0.76570 0.05401 0.63104 1.0000
  Bi  Bi 0.75989 0.05111 0.00000 1.0000
  Bi  Bi 0.75989 0.05111 0.00000 1.0000
  Bi  Bi 0.75989 0.05111 0.00000 1.0000
  Bi  Bi 0.75989 0.05111 0.00000 1.0000
  Bi  Bi 0.80133 0.07183 0.36895 1.0000
  Bi  Bi 0.80133 0.07183 0.36895 1.0000
  Bi  Bi 0.78932 0.05401 0.63104 1.0000
  Bi  Bi 0.78932 0.05401 0.63104 1.0000
  Bi  Bi 0.78351 0.05111 0.00000 1.0000
  Bi  Bi 0.78351 0.05111 0.00000 1.0000
  Bi  Bi 0.78351 0.05111 0.00000 1.0000
  Bi  Bi 0.78351 0.05111 0.00000 1.0000
  Bi  Bi 0.82495 0.07183 0.36895 1.0000
  Bi  Bi 0.82495 0.07183 0.36895 1.0000
  Bi  Bi 0.81295 0.05401 0.63104 1.0000
  Bi  Bi 0.81295 0.05401 0.63104 1.0000
  Bi  Bi 0.80714 0.05111 0.00000 1.0000
  Bi  Bi 0.80714 0.05111 0.00000 1.0000
  Bi  Bi 0.80714 0.05111 0.00000 1.0000
  Bi  Bi 0.80714 0.05111 0.00000 1.0000
  Bi  Bi 0.84858 0.07183 0.36895 1.0000
  Bi  Bi 0.84858 0.07183 0.36895 1.0000
  Bi  Bi 0.83657 0.05401 0.63104 1.0000
  Bi  Bi 0.83657 0.05401 0.63104 1.0000
  Bi  Bi 0.83076 0.05111 0.00000 1.0000
  Bi  Bi 0.83076 0.05111 0.00000 1.0000
  Bi  Bi 0.83076 0.05111 0.00000 1.0000
  Bi  Bi 0.83076 0.05111 0.00000 1.0000
  Bi  Bi 0.87220 0.07183 0.36895 1.0000
  Bi  Bi 0.87220 0.07183 0.36895 1.0000
  Bi  Bi 0.86020 0.05401 0.63104 1.0000
  Bi  Bi 0.86020 0.05401 0.63104 1.0000
  Bi  Bi 0.85439 0.05111 0.00000 1.0000
  Bi  Bi 0.85439 0.05111 0.00000 1.0000
  Bi  Bi 0.85439 0.05111 0.00000 1.0000
  Bi  Bi 0.85439 0.05111 0.00000 1.0000
  Bi  Bi 0.89583 0.07183 0.36895 1.0000
  Bi  Bi 0.89583 0.07183 0.36895 1.0000
  Bi  Bi 0.88383 0.05401 0.63104 1.0000
  Bi  Bi 0.88383 0.05401 0.63104 1.0000
  Bi  Bi 0.87802 0.05111 0.00000 1.0000
  Bi  Bi 0.87802 0.05111 0.00000 1.0000
  Bi  Bi 0.87802 0.05111 0.00000 1.0000
  Bi  Bi 0.87802 0.05111 0.00000 1.0000
  Bi  Bi 0.91946 0.07183 0.36895 1.0000
  Bi  Bi 0.91946 0.07183 0.36895 1.0000
  Bi  Bi 0.90745 0.05401 0.63104 1.0000
  Bi  Bi 0.90745 0.05401 0.63104 1.0000
  Bi  Bi 0.90164 0.05111 0.00000 1.0000
  Bi  Bi 0.90164 0.05111 0.00000 1.0000
  Bi  Bi 0.90164 0.05111 0.00000 1.0000
  Bi  Bi 0.90164 0.05111 0.00000 1.0000
  Bi  Bi 0.94308 0.07183 0.36895 1.0000
  Bi  Bi 0.94308 0.07183 0.36895 1.0000
  Bi  Bi 0.93108 0.05401 0.63104 1.0000
  Bi  Bi 0.93108 0.05401 0.63104 1.0000
  Bi  Bi 0.92527 0.05111 0.00000 1.0000
  Bi  Bi 0.92527 0.05111 0.00000 1.0000
  Bi  Bi 0.92527 0.05111 0.00000 1.0000
  Bi  Bi 0.92527 0.05111 0.00000 1.0000
  Bi  Bi 0.96671 0.07183 0.36895 1.0000
  Bi  Bi 0.96671 0.07183 0.36895 1.0000
  Bi  Bi 0.95470 0.05401 0.63104 1.0000
  Bi  Bi 0.95470 0.05401 0.63104 1.0000
  Bi  Bi 0.94889 0.05111 0.00000 1.0000
  Bi  Bi 0.94889 0.05111 0.00000 1.0000
  Bi  Bi 0.94889 0.05111 0.00000 1.0000
  Bi  Bi 0.94889 0.05111 0.00000 1.0000
  Bi  Bi 0.04530 0.09545 0.36895 1.0000
  Bi  Bi 0.04530 0.09545 0.36895 1.0000
  Bi  Bi 0.03329 0.07764 0.63104 1.0000
  Bi  Bi 0.03329 0.07764 0.63104 1.0000
  Bi  Bi 0.02748 0.07473 0.00000 1.0000
  Bi  Bi 0.02748 0.07473 0.00000 1.0000
  Bi  Bi 0.02748 0.07473 0.00000 1.0000
  Mo  Mo 0.02748 0.07473 0.00000 1.0000
  Bi  Bi 0.06892 0.09545 0.36895 1.0000
  Mo  Mo 0.06892 0.09545 0.36895 1.0000
  Bi  Bi 0.05692 0.07764 0.63104 1.0000
  Mo  Mo 0.05692 0.07764 0.63104 1.0000
  Si  Si 0.05111 0.07473 0.00000 1.0000
  Mo  Mo 0.05111 0.07473 0.00000 1.0000
  Si  Si 0.05111 0.07473 0.00000 1.0000
  Dy  Dy 0.05111 0.07473 0.00000 1.0000
  Bi  Bi 0.09255 0.09545 0.36895 1.0000
  Mo  Mo 0.09255 0.09545 0.36895 1.0000
  Bi  Bi 0.08054 0.07764 0.63104 1.0000
  Mo  Mo 0.08054 0.07764 0.63104 1.0000
  Si  Si 0.07473 0.07473 0.00000 1.0000
  Si  Si 0.07473 0.07473 0.00000 1.0000
  Rb  Rb 0.07473 0.07473 0.00000 1.0000
  Dy  Dy 0.07473 0.07473 0.00000 1.0000
  Bi  Bi 0.11617 0.09545 0.36895 1.0000
  Mo  Mo 0.11617 0.09545 0.36895 1.0000
  Bi  Bi 0.10417 0.07764 0.63104 1.0000
  Mo  Mo 0.10417 0.07764 0.63104 1.0000
  Si  Si 0.09836 0.07473 0.00000 1.0000
  Rb  Rb 0.09836 0.07473 0.00000 1.0000
  Rb  Rb 0.09836 0.07473 0.00000 1.0000
  Dy  Dy 0.09836 0.07473 0.00000 1.0000
  Bi  Bi 0.13980 0.09545 0.36895 1.0000
  Mo  Mo 0.13980 0.09545 0.36895 1.0000
  Bi  Bi 0.12780 0.07764 0.63104 1.0000
  Mo  Mo 0.12780 0.07764 0.63104 1.0000
  Si  Si 0.12198 0.07473 0.00000 1.0000
  Si  Si 0.12198 0.07473 0.00000 1.0000
  Si  Si 0.12198 0.07473 0.00000 1.0000
  Dy  Dy 0.12198 0.07473 0.00000 1.0000
  Bi  Bi 0.16343 0.09545 0.36895 1.0000
  Mo  Mo 0.16343 0.09545 0.36895 1.0000
  Bi  Bi 0.15142 0.07764 0.63104 1.0000
  Mo  Mo 0.15142 0.07764 0.63104 1.0000
  Si  Si 0.14561 0.07473 0.00000 1.0000
  Si  Si 0.14561 0.07473 0.00000 1.0000
  Si  Si 0.14561 0.07473 0.00000 1.0000
  Rb  Rb 0.14561 0.07473 0.00000 1.0000
  Bi  Bi 0.18705 0.09545 0.36895 1.0000
  Mo  Mo 0.18705 0.09545 0.36895 1.0000
  Bi  Bi 0.17505 0.07764 0.63104 1.0000
  Mo  Mo 0.17505 0.07764 0.63104 1.0000
  Mo  Mo 0.16924 0.07473 0.00000 1.0000
  Si  Si 0.16924 0.07473 0.00000 1.0000
  Mo  Mo 0.16924 0.07473 0.00000 1.0000
  Si  Si 0.16924 0.07473 0.00000 1.0000
  Bi  Bi 0.21068 0.09545 0.36895 1.0000
  Mo  Mo 0.21068 0.09545 0.36895 1.0000
  Bi  Bi 0.19867 0.07764 0.63104 1.0000
  Bi  Bi 0.19867 0.07764 0.63104 1.0000
  Mo  Mo 0.19286 0.07473 0.00000 1.0000
  Mo  Mo 0.19286 0.07473 0.00000 1.0000
  Mo  Mo 0.19286 0.07473 0.00000 1.0000
  Si  Si 0.19286 0.07473 0.00000 1.0000
  Bi  Bi 0.23430 0.09545 0.36895 1.0000
  Bi  Bi 0.23430 0.09545 0.36895 1.0000
  Bi  Bi 0.22230 0.07764 0.63104 1.0000
  Bi  Bi 0.22230 0.07764 0.63104 1.0000
  Mo  Mo 0.21649 0.07473 0.00000 1.0000
  Mo  Mo 0.21649 0.07473 0.00000 1.0000
  Mo  Mo 0.21649 0.07473 0.00000 1.0000
  Mo  Mo 0.21649 0.07473 0.00000 1.0000
  Bi  Bi 0.25793 0.09545 0.36895 1.0000
  Bi  Bi 0.25793 0.09545 0.36895 1.0000
  Bi  Bi 0.24593 0.07764 0.63104 1.0000
  Bi  Bi 0.24593 0.07764 0.63104 1.0000
  Bi  Bi 0.24011 0.07473 0.00000 1.0000
  Bi  Bi 0.24011 0.07473 0.00000 1.0000
  Bi  Bi 0.24011 0.07473 0.00000 1.0000
  Mo  Mo 0.24011 0.07473 0.00000 1.0000
  Bi  Bi 0.28156 0.09545 0.36895 1.0000
  Bi  Bi 0.28156 0.09545 0.36895 1.0000
  Bi  Bi 0.26955 0.07764 0.63104 1.0000
  Bi  Bi 0.26955 0.07764 0.63104 1.0000
  Bi  Bi 0.26374 0.07473 0.00000 1.0000
  Bi  Bi 0.26374 0.07473 0.00000 1.0000
  Bi  Bi 0.26374 0.07473 0.00000 1.0000
  Bi  Bi 0.26374 0.07473 0.00000 1.0000
  Bi  Bi 0.30518 0.09545 0.36895 1.0000
  Bi  Bi 0.30518 0.09545 0.36895 1.0000
  Bi  Bi 0.29318 0.07764 0.63104 1.0000
  Bi  Bi 0.29318 0.07764 0.63104 1.0000
  Bi  Bi 0.28737 0.07473 0.00000 1.0000
  Bi  Bi 0.28737 0.07473 0.00000 1.0000
  Bi  Bi 0.28737 0.07473 0.00000 1.0000
  Bi  Bi 0.28737 0.07473 0.00000 1.0000
  Bi  Bi 0.32881 0.09545 0.36895 1.0000
  Bi  Bi 0.32881 0.09545 0.36895 1.0000
  Bi  Bi 0.31680 0.07764 0.63104 1.0000
  Bi  Bi 0.31680 0.07764 0.63104 1.0000
  Bi  Bi 0.31099 0.07473 0.00000 1.0000
  Bi  Bi 0.31099 0.07473 0.00000 1.0000
  Bi  Bi 0.31099 0.07473 0.00000 1.0000
  Bi  Bi 0.31099 0.07473 0.00000 1.0000
  Bi  Bi 0.35243 0.09545 0.36895 1.0000
  Bi  Bi 0.35243 0.09545 0.36895 1.0000
  Bi  Bi 0.34043 0.07764 0.63104 1.0000
  Bi  Bi 0.34043 0.07764 0.63104 1.0000
  Bi  Bi 0.33462 0.07473 0.00000 1.0000
  Bi  Bi 0.33462 0.07473 0.00000 1.0000
  Bi  Bi 0.33462 0.07473 0.00000 1.0000
  Bi  Bi 0.33462 0.07473 0.00000 1.0000
  Bi  Bi 0.37606 0.09545 0.36895 1.0000
  Bi  Bi 0.37606 0.09545 0.36895 1.0000
  Bi  Bi 0.36406 0.07764 0.63104 1.0000
  Bi  Bi 0.36406 0.07764 0.63104 1.0000
  Bi  Bi 0.35824 0.07473 0.00000 1.0000
  Bi  Bi 0.35824 0.07473 0.00000 1.0000
  Bi  Bi 0.35824 0.07473 0.00000 1.0000
  Bi  Bi 0.35824 0.07473 0.00000 1.0000
  Bi  Bi 0.39968 0.09545 0.36895 1.0000
  Bi  Bi 0.39968 0.09545 0.36895 1.0000
  Bi  Bi 0.38768 0.07764 0.63104 1.0000
  Bi  Bi 0.38768 0.07764 0.63104 1.0000
  Bi  Bi 0.38187 0.07473 0.00000 1.0000
  Bi  Bi 0.38187 0.07473 0.00000 1.0000
  Bi  Bi 0.38187 0.07473 0.00000 1.0000
  Bi  Bi 0.38187 0.07473 0.00000 1.0000
  Bi  Bi 0.42331 0.09545 0.36895 1.0000
  Bi  Bi 0.42331 0.09545 0.36895 1.0000
  Bi  Bi 0.41131 0.07764 0.63104 1.0000
  Bi  Bi 0.41131 0.07764 0.63104 1.0000
  Bi  Bi 0.40550 0.07473 0.00000 1.0000
  Bi  Bi 0.40550 0.07473 0.00000 1.0000
  Bi  Bi 0.40550 0.07473 0.00000 1.0000
  Bi  Bi 0.40550 0.07473 0.00000 1.0000
  Bi  Bi 0.44694 0.09545 0.36895 1.0000
  Bi  Bi 0.44694 0.09545 0.36895 1.0000
  Bi  Bi 0.43493 0.07764 0.63104 1.0000
  Bi  Bi 0.43493 0.07764 0.63104 1.0000
  Bi  Bi 0.42912 0.07473 0.00000 1.0000
  Bi  Bi 0.42912 0.07473 0.00000 1.0000
  Bi  Bi 0.42912 0.07473 0.00000 1.0000
  Bi  Bi 0.42912 0.07473 0.00000 1.0000
  Bi  Bi 0.47056 0.09545 0.36895 1.0000
  Bi  Bi 0.47056 0.09545 0.36895 1.0000
  Bi  Bi 0.45856 0.07764 0.63104 1.0000
  Bi  Bi 0.45856 0.07764 0.63104 1.0000
  Bi  Bi 0.45275 0.07473 0.00000 1.0000
  Bi  Bi 0.45275 0.07473 0.00000 1.0000
  Bi  Bi 0.45275 0.07473 0.00000 1.0000
  Bi  Bi 0.45275 0.07473 0.00000 1.0000
  Bi  Bi 0.49419 0.09545 0.36895 1.0000
  Bi  Bi 0.49419 0.09545 0.36895 1.0000
  Bi  Bi 0.48219 0.07764 0.63104 1.0000
  Bi  Bi 0.48219 0.07764 0.63104 1.0000
  Bi  Bi 0.47637 0.07473 0.00000 1.0000
  Bi  Bi 0.47637 0.07473 0.00000 1.0000
  Bi  Bi 0.47637 0.07473 0.00000 1.0000
  Bi  Bi 0.47637 0.07473 0.00000 1.0000
  Bi  Bi 0.51781 0.09545 0.36895 1.0000
  Bi  Bi 0.51781 0.09545 0.36895 1.0000
  Bi  Bi 0.50581 0.07764 0.63104 1.0000
  Bi  Bi 0.50581 0.07764 0.63104 1.0000
  Bi  Bi 0.50000 0.07473 0.00000 1.0000
  Bi  Bi 0.50000 0.07473 0.00000 1.0000
  Bi  Bi 0.50000 0.07473 0.00000 1.0000
  Bi  Bi 0.50000 0.07473 0.00000 1.0000
  Bi  Bi 0.54144 0.09545 0.36895 1.0000
  Bi  Bi 0.54144 0.09545 0.36895 1.0000
  Bi  Bi 0.52944 0.07764 0.63104 1.0000
  Bi  Bi 0.52944 0.07764 0.63104 1.0000
  Bi  Bi 0.52363 0.07473 0.00000 1.0000
  Bi  Bi 0.52363 0.07473 0.00000 1.0000
  Bi  Bi 0.52363 0.07473 0.00000 1.0000
  Bi  Bi 0.52363 0.07473 0.00000 1.0000
  Bi  Bi 0.56507 0.09545 0.36895 1.0000
  Bi  Bi 0.56507 0.09545 0.36895 1.0000
  Bi  Bi 0.55306 0.07764 0.63104 1.0000
  Bi  Bi 0.55306 0.07764 0.63104 1.0000
  Bi  Bi 0.54725 0.07473 0.00000 1.0000
  Bi  Bi 0.54725 0.07473 0.00000 1.0000
  Bi  Bi 0.54725 0.07473 0.00000 1.0000
  Bi  Bi 0.54725 0.07473 0.00000 1.0000
  Bi  Bi 0.58869 0.09545 0.36895 1.0000
  Bi  Bi 0.58869 0.09545 0.36895 1.0000
  Bi  Bi 0.57669 0.07764 0.63104 1.0000
  Bi  Bi 0.57669 0.07764 0.63104 1.0000
  Bi  Bi 0.57088 0.07473 0.00000 1.0000
  Bi  Bi 0.57088 0.07473 0.00000 1.0000
  Bi  Bi 0.57088 0.07473 0.00000 1.0000
  Bi  Bi 0.57088 0.07473 0.00000 1.0000
  Bi  Bi 0.61232 0.09545 0.36895 1.0000
  Bi  Bi 0.61232 0.09545 0.36895 1.0000
  Bi  Bi 0.60032 0.07764 0.63104 1.0000
  Bi  Bi 0.60032 0.07764 0.63104 1.0000
  Bi  Bi 0.59450 0.07473 0.00000 1.0000
  Bi  Bi 0.59450 0.07473 0.00000 1.0000
  Bi  Bi 0.59450 0.07473 0.00000 1.0000
  Bi  Bi 0.59450 0.07473 0.00000 1.0000
  Bi  Bi 0.63594 0.09545 0.36895 1.0000
  Bi  Bi 0.63594 0.09545 0.36895 1.0000
  Bi  Bi 0.62394 0.07764 0.63104 1.0000
  Bi  Bi 0.62394 0.07764 0.63104 1.0000
  Bi  Bi 0.61813 0.07473 0.00000 1.0000
  Bi  Bi 0.61813 0.07473 0.00000 1.0000
  Bi  Bi 0.61813 0.07473 0.00000 1.0000
  Bi  Bi 0.61813 0.07473 0.00000 1.0000
  Bi  Bi 0.65957 0.09545 0.36895 1.0000
  Bi  Bi 0.65957 0.09545 0.36895 1.0000
  Bi  Bi 0.64757 0.07764 0.63104 1.0000
  Bi  Bi 0.64757 0.07764 0.63104 1.0000
  Bi  Bi 0.64176 0.07473 0.00000 1.0000
  Bi  Bi 0.64176 0.07473 0.00000 1.0000
  Bi  Bi 0.64176 0.07473 0.00000 1.0000
  Bi  Bi 0.64176 0.07473 0.00000 1.0000
  Bi  Bi 0.68320 0.09545 0.36895 1.0000
  Bi  Bi 0.68320 0.09545 0.36895 1.0000
  Bi  Bi 0.67119 0.07764 0.63104 1.0000
  Bi  Bi 0.67119 0.07764 0.63104 1.0000
  Bi  Bi 0.66538 0.07473 0.00000 1.0000
  Bi  Bi 0.66538 0.07473 0.00000 1.0000
  Bi  Bi 0.66538 0.07473 0.00000 1.0000
  Bi  Bi 0.66538 0.07473 0.00000 1.0000
  Bi  Bi 0.70682 0.09545 0.36895 1.0000
  Bi  Bi 0.70682 0.09545 0.36895 1.0000
  Bi  Bi 0.69482 0.07764 0.63104 1.0000
  Bi  Bi 0.69482 0.07764 0.63104 1.0000
  Bi  Bi 0.68901 0.07473 0.00000 1.0000
  Bi  Bi 0.68901 0.07473 0.00000 1.0000
  Bi  Bi 0.68901 0.07473 0.00000 1.0000
  Bi  Bi 0.68901 0.07473 0.00000 1.0000
  Bi  Bi 0.73045 0.09545 0.36895 1.0000
  Bi  Bi 0.73045 0.09545 0.36895 1.0000
  Bi  Bi 0.71844 0.07764 0.63104 1.0000
  Bi  Bi 0.71844 0.07764 0.63104 1.0000
  Bi  Bi 0.71263 0.07473 0.00000 1.0000
  Bi  Bi 0.71263 0.07473 0.00000 1.0000
  Bi  Bi 0.71263 0.07473 0.00000 1.0000
  Bi  Bi 0.71263 0.07473 0.00000 1.0000
  Bi  Bi 0.75407 0.09545 0.36895 1.0000
  Bi  Bi 0.75407 0.09545 0.36895 1.0000
  Bi  Bi 0.74207 0.07764 0.63104 1.0000
  Bi  Bi 0.74207 0.07764 0.63104 1.0000
  Bi  Bi 0.73626 0.07473 0.00000 1.0000
  Bi  Bi 0.73626 0.07473 0.00000 1.0000
  Bi  Bi 0.73626 0.07473 0.00000 1.0000
  Bi  Bi 0.73626 0.07473 0.00000 1.0000
  Bi  Bi 0.77770 0.09545 0.36895 1.0000
  Bi  Bi 0.77770 0.09545 0.36895 1.0000
  Bi  Bi 0.76570 0.07764 0.63104 1.0000
  Bi  Bi 0.76570 0.07764 0.63104 1.0000
  Bi  Bi 0.75989 0.07473 0.00000 1.0000
  Bi  Bi 0.75989 0.07473 0.00000 1.0000
  Bi  Bi 0.75989 0.07473 0.00000 1.0000
  Bi  Bi 0.75989 0.07473 0.00000 1.0000
  Bi  Bi 0.80133 0.09545 0.36895 1.0000
  Bi  Bi 0.80133 0.09545 0.36895 1.0000
  Bi  Bi 0.78932 0.07764 0.63104 1.0000
  Bi  Bi 0.78932 0.07764 0.63104 1.0000
  Bi  Bi 0.78351 0.07473 0.00000 1.0000
  Bi  Bi 0.78351 0.07473 0.00000 1.0000
  Bi  Bi 0.78351 0.07473 0.00000 1.0000
  Bi  Bi 0.78351 0.07473 0.00000 1.0000
  Bi  Bi 0.82495 0.09545 0.36895 1.0000
  Bi  Bi 0.82495 0.09545 0.36895 1.0000
  Bi  Bi 0.81295 0.07764 0.63104 1.0000
  Bi  Bi 0.81295 0.07764 0.63104 1.0000
  Bi  Bi 0.80714 0.07473 0.00000 1.0000
  Bi  Bi 0.80714 0.07473 0.00000 1.0000
  Bi  Bi 0.80714 0.07473 0.00000 1.0000
  Bi  Bi 0.80714 0.07473 0.00000 1.0000
  Bi  Bi 0.84858 0.09545 0.36895 1.0000
  Bi  Bi 0.84858 0.09545 0.36895 1.0000
  Bi  Bi 0.83657 0.07764 0.63104 1.0000
  Bi  Bi 0.83657 0.07764 0.63104 1.0000
  Bi  Bi 0.83076 0.07473 0.00000 1.0000
  Bi  Bi 0.83076 0.07473 0.00000 1.0000
  Bi  Bi 0.83076 0.07473 0.00000 1.0000
  Bi  Bi 0.83076 0.07473 0.00000 1.0000
  Bi  Bi 0.87220 0.09545 0.36895 1.0000
  Bi  Bi 0.87220 0.09545 0.36895 1.0000
  Bi  Bi 0.86020 0.07764 0.63104 1.0000
  Bi  Bi 0.86020 0.07764 0.63104 1.0000
  Bi  Bi 0.85439 0.07473 0.00000 1.0000
  Bi  Bi 0.85439 0.07473 0.00000 1.0000
  Bi  Bi 0.85439 0.07473 0.00000 1.0000
  Bi  Bi 0.85439 0.07473 0.00000 1.0000
  Bi  Bi 0.89583 0.09545 0.36895 1.0000
  Bi  Bi 0.89583 0.09545 0.36895 1.0000
  Bi  Bi 0.88383 0.07764 0.63104 1.0000
  Bi  Bi 0.88383 0.07764 0.63104 1.0000
  Bi  Bi 0.87802 0.07473 0.00000 1.0000
  Bi  Bi 0.87802 0.07473 0.00000 1.0000
  Bi  Bi 0.87802 0.07473 0.00000 1.0000
  Bi  Bi 0.87802 0.07473 0.00000 1.0000
  Bi  Bi 0.91946 0.09545 0.36895 1.0000
  Bi  Bi 0.91946 0.09545 0.36895 1.0000
  Bi  Bi 0.90745 0.07764 0.63104 1.0000
  Bi  Bi 0.90745 0.07764 0.63104 1.0000
  Bi  Bi 0.90164 0.07473 0.00000 1.0000
  Bi  Bi 0.90164 0.07473 0.00000 1.0000
  Bi  Bi 0.90164 0.07473 0.00000 1.0000
  Bi  Bi 0.90164 0.07473 0.00000 1.0000
  Bi  Bi 0.94308 0.09545 0.36895 1.0000
  Bi  Bi 0.94308 0.09545 0.36895 1.0000
  Bi  Bi 0.93108 0.07764 0.63104 1.0000
  Bi  Bi 0.93108 0.07764 0.63104 1.0000
  Bi  Bi 0.92527 0.07473 0.00000 1.0000
  Bi  Bi 0.92527 0.07473 0.00000 1.0000
  Bi  Bi 0.92527 0.07473 0.00000 1.0000
  Bi  Bi 0.92527 0.07473 0.00000 1.0000
  Bi  Bi 0.96671 0.09545 0.36895 1.0000
  Bi  Bi 0.96671 0.09545 0.36895 1.0000
  Bi  Bi 0.95470 0.07764 0.63104 1.0000
  Bi  Bi 0.95470 0.07764 0.63104 1.0000
  Bi  Bi 0.94889 0.07473 0.00000 1.0000
  Bi  Bi 0.94889 0.07473 0.00000 1.0000
  Bi  Bi 0.94889 0.07473 0.00000 1.0000
  Bi  Bi 0.94889 0.07473 0.00000 1.0000
  Bi  Bi 0.04530 0.11908 0.36895 1.0000
  Bi  Bi 0.04530 0.11908 0.36895 1.0000
  Bi  Bi 0.03329 0.10126 0.63104 1.0000
  Bi  Bi 0.03329 0.10126 0.63104 1.0000
  Mo  Mo 0.02748 0.09836 0.00000 1.0000
  Bi  Bi 0.02748 0.09836 0.00000 1.0000
  Bi  Bi 0.02748 0.09836 0.00000 1.0000
  Mo  Mo 0.02748 0.09836 0.00000 1.0000
  Bi  Bi 0.06892 0.11908 0.36895 1.0000
  Mo  Mo 0.06892 0.11908 0.36895 1.0000
  Bi  Bi 0.05692 0.10126 0.63104 1.0000
  Mo  Mo 0.05692 0.10126 0.63104 1.0000
  Si  Si 0.05111 0.09836 0.00000 1.0000
  Si  Si 0.05111 0.09836 0.00000 1.0000
  Si  Si 0.05111 0.09836 0.00000 1.0000
  Rb  Rb 0.05111 0.09836 0.00000 1.0000
  Bi  Bi 0.09255 0.11908 0.36895 1.0000
  Mo  Mo 0.09255 0.11908 0.36895 1.0000
  Bi  Bi 0.08054 0.10126 0.63104 1.0000
  Mo  Mo 0.08054 0.10126 0.63104 1.0000
  Si  Si 0.07473 0.09836 0.00000 1.0000
  Si  Si 0.07473 0.09836 0.00000 1.0000
  Rb  Rb 0.07473 0.09836 0.00000 1.0000
  Dy  Dy 0.07473 0.09836 0.00000 1.0000
  Mo  Mo 0.11617 0.11908 0.36895 1.0000
  Mo  Mo 0.11617 0.11908 0.36895 1.0000
  Bi  Bi 0.10417 0.10126 0.63104 1.0000
  Mo  Mo 0.10417 0.10126 0.63104 1.0000
  Si  Si 0.09836 0.09836 0.00000 1.0000
  Rb  Rb 0.09836 0.09836 0.00000 1.0000
  Rb  Rb 0.09836 0.09836 0.00000 1.0000
  Dy  Dy 0.09836 0.09836 0.00000 1.0000
  Bi  Bi 0.13980 0.11908 0.36895 1.0000
  Mo  Mo 0.13980 0.11908 0.36895 1.0000
  Bi  Bi 0.12780 0.10126 0.63104 1.0000
  Mo  Mo 0.12780 0.10126 0.63104 1.0000
  Si  Si 0.12198 0.09836 0.00000 1.0000
  Rb  Rb 0.12198 0.09836 0.00000 1.0000
  Si  Si 0.12198 0.09836 0.00000 1.0000
  Dy  Dy 0.12198 0.09836 0.00000 1.0000
  Bi  Bi 0.16343 0.11908 0.36895 1.0000
  Mo  Mo 0.16343 0.11908 0.36895 1.0000
  Bi  Bi 0.15142 0.10126 0.63104 1.0000
  Mo  Mo 0.15142 0.10126 0.63104 1.0000
  Si  Si 0.14561 0.09836 0.00000 1.0000
  Si  Si 0.14561 0.09836 0.00000 1.0000
  Si  Si 0.14561 0.09836 0.00000 1.0000
  Rb  Rb 0.14561 0.09836 0.00000 1.0000
  Bi  Bi 0.18705 0.11908 0.36895 1.0000
  Mo  Mo 0.18705 0.11908 0.36895 1.0000
  Bi  Bi 0.17505 0.10126 0.63104 1.0000
  Mo  Mo 0.17505 0.10126 0.63104 1.0000
  Mo  Mo 0.16924 0.09836 0.00000 1.0000
  Si  Si 0.16924 0.09836 0.00000 1.0000
  Mo  Mo 0.16924 0.09836 0.00000 1.0000
  Si  Si 0.16924 0.09836 0.00000 1.0000
  Bi  Bi 0.21068 0.11908 0.36895 1.0000
  Bi  Bi 0.21068 0.11908 0.36895 1.0000
  Bi  Bi 0.19867 0.10126 0.63104 1.0000
  Bi  Bi 0.19867 0.10126 0.63104 1.0000
  Mo  Mo 0.19286 0.09836 0.00000 1.0000
  Mo  Mo 0.19286 0.09836 0.00000 1.0000
  Mo  Mo 0.19286 0.09836 0.00000 1.0000
  Si  Si 0.19286 0.09836 0.00000 1.0000
  Bi  Bi 0.23430 0.11908 0.36895 1.0000
  Bi  Bi 0.23430 0.11908 0.36895 1.0000
  Bi  Bi 0.22230 0.10126 0.63104 1.0000
  Bi  Bi 0.22230 0.10126 0.63104 1.0000
  Mo  Mo 0.21649 0.09836 0.00000 1.0000
  Mo  Mo 0.21649 0.09836 0.00000 1.0000
  Mo  Mo 0.21649 0.09836 0.00000 1.0000
  Mo  Mo 0.21649 0.09836 0.00000 1.0000
  Bi  Bi 0.25793 0.11908 0.36895 1.0000
  Bi  Bi 0.25793 0.11908 0.36895 1.0000
  Bi  Bi 0.24593 0.10126 0.63104 1.0000
  Bi  Bi 0.24593 0.10126 0.63104 1.0000
  Bi  Bi 0.24011 0.09836 0.00000 1.0000
  Bi  Bi 0.24011 0.09836 0.00000 1.0000
  Bi  Bi 0.24011 0.09836 0.00000 1.0000
  Mo  Mo 0.24011 0.09836 0.00000 1.0000
  Bi  Bi 0.28156 0.11908 0.36895 1.0000
  Bi  Bi 0.28156 0.11908 0.36895 1.0000
  Bi  Bi 0.26955 0.10126 0.63104 1.0000
  Bi  Bi 0.26955 0.10126 0.63104 1.0000
  Bi  Bi 0.26374 0.09836 0.00000 1.0000
  Bi  Bi 0.26374 0.09836 0.00000 1.0000
  Bi  Bi 0.26374 0.09836 0.00000 1.0000
  Bi  Bi 0.26374 0.09836 0.00000 1.0000
  Bi  Bi 0.30518 0.11908 0.36895 1.0000
  Bi  Bi 0.30518 0.11908 0.36895 1.0000
  Bi  Bi 0.29318 0.10126 0.63104 1.0000
  Bi  Bi 0.29318 0.10126 0.63104 1.0000
  Bi  Bi 0.28737 0.09836 0.00000 1.0000
  Bi  Bi 0.28737 0.09836 0.00000 1.0000
  Bi  Bi 0.28737 0.09836 0.00000 1.0000
  Bi  Bi 0.28737 0.09836 0.00000 1.0000
  Bi  Bi 0.32881 0.11908 0.36895 1.0000
  Bi  Bi 0.32881 0.11908 0.36895 1.0000
  Bi  Bi 0.31680 0.10126 0.63104 1.0000
  Bi  Bi 0.31680 0.10126 0.63104 1.0000
  Bi  Bi 0.31099 0.09836 0.00000 1.0000
  Bi  Bi 0.31099 0.09836 0.00000 1.0000
  Bi  Bi 0.31099 0.09836 0.00000 1.0000
  Bi  Bi 0.31099 0.09836 0.00000 1.0000
  Bi  Bi 0.35243 0.11908 0.36895 1.0000
  Bi  Bi 0.35243 0.11908 0.36895 1.0000
  Bi  Bi 0.34043 0.10126 0.63104 1.0000
  Bi  Bi 0.34043 0.10126 0.63104 1.0000
  Bi  Bi 0.33462 0.09836 0.00000 1.0000
  Bi  Bi 0.33462 0.09836 0.00000 1.0000
  Bi  Bi 0.33462 0.09836 0.00000 1.0000
  Bi  Bi 0.33462 0.09836 0.00000 1.0000
  Bi  Bi 0.37606 0.11908 0.36895 1.0000
  Bi  Bi 0.37606 0.11908 0.36895 1.0000
  Bi  Bi 0.36406 0.10126 0.63104 1.0000
  Bi  Bi 0.36406 0.10126 0.63104 1.0000
  Bi  Bi 0.35824 0.09836 0.00000 1.0000
  Bi  Bi 0.35824 0.09836 0.00000 1.0000
  Bi  Bi 0.35824 0.09836 0.00000 1.0000
  Bi  Bi 0.35824 0.09836 0.00000 1.0000
  Bi  Bi 0.39968 0.11908 0.36895 1.0000
  Bi  Bi 0.39968 0.11908 0.36895 1.0000
  Bi  Bi 0.38768 0.10126 0.63104 1.0000
  Bi  Bi 0.38768 0.10126 0.63104 1.0000
  Bi  Bi 0.38187 0.09836 0.00000 1.0000
  Bi  Bi 0.38187 0.09836 0.00000 1.0000
  Bi  Bi 0.38187 0.09836 0.00000 1.0000
  Bi  Bi 0.38187 0.09836 0.00000 1.0000
  Bi  Bi 0.42331 0.11908 0.36895 1.0000
  Bi  Bi 0.42331 0.11908 0.36895 1.0000
  Bi  Bi 0.41131 0.10126 0.63104 1.0000
  Bi  Bi 0.41131 0.10126 0.63104 1.0000
  Bi  Bi 0.40550 0.09836 0.00000 1.0000
  Bi  Bi 0.40550 0.09836 0.00000 1.0000
  Bi  Bi 0.40550 0.09836 0.00000 1.0000
  Bi  Bi 0.40550 0.09836 0.00000 1.0000
  Bi  Bi 0.44694 0.11908 0.36895 1.0000
  Bi  Bi 0.44694 0.11908 0.36895 1.0000
  Bi  Bi 0.43493 0.10126 0.63104 1.0000
  Bi  Bi 0.43493 0.10126 0.63104 1.0000
  Bi  Bi 0.42912 0.09836 0.00000 1.0000
  Bi  Bi 0.42912 0.09836 0.00000 1.0000
  Bi  Bi 0.42912 0.09836 0.00000 1.0000
  Bi  Bi 0.42912 0.09836 0.00000 1.0000
  Bi  Bi 0.47056 0.11908 0.36895 1.0000
  Bi  Bi 0.47056 0.11908 0.36895 1.0000
  Bi  Bi 0.45856 0.10126 0.63104 1.0000
  Bi  Bi 0.45856 0.10126 0.63104 1.0000
  Bi  Bi 0.45275 0.09836 0.00000 1.0000
  Bi  Bi 0.45275 0.09836 0.00000 1.0000
  Bi  Bi 0.45275 0.09836 0.00000 1.0000
  Bi  Bi 0.45275 0.09836 0.00000 1.0000
  Bi  Bi 0.49419 0.11908 0.36895 1.0000
  Bi  Bi 0.49419 0.11908 0.36895 1.0000
  Bi  Bi 0.48219 0.10126 0.63104 1.0000
  Bi  Bi 0.48219 0.10126 0.63104 1.0000
  Bi  Bi 0.47637 0.09836 0.00000 1.0000
  Bi  Bi 0.47637 0.09836 0.00000 1.0000
  Bi  Bi 0.47637 0.09836 0.00000 1.0000
  Bi  Bi 0.47637 0.09836 0.00000 1.0000
  Bi  Bi 0.51781 0.11908 0.36895 1.0000
  Bi  Bi 0.51781 0.11908 0.36895 1.0000
  Bi  Bi 0.50581 0.10126 0.63104 1.0000
  Bi  Bi 0.50581 0.10126 0.63104 1.0000
  Bi  Bi 0.50000 0.09836 0.00000 1.0000
  Bi  Bi 0.50000 0.09836 0.00000 1.0000
  Bi  Bi 0.50000 0.09836 0.00000 1.0000
  Bi  Bi 0.50000 0.09836 0.00000 1.0000
  Bi  Bi 0.54144 0.11908 0.36895 1.0000
  Bi  Bi 0.54144 0.11908 0.36895 1.0000
  Bi  Bi 0.52944 0.10126 0.63104 1.0000
  Bi  Bi 0.52944 0.10126 0.63104 1.0000
  Bi  Bi 0.52363 0.09836 0.00000 1.0000
  Bi  Bi 0.52363 0.09836 0.00000 1.0000
  Bi  Bi 0.52363 0.09836 0.00000 1.0000
  Bi  Bi 0.52363 0.09836 0.00000 1.0000
  Bi  Bi 0.56507 0.11908 0.36895 1.0000
  Bi  Bi 0.56507 0.11908 0.36895 1.0000
  Bi  Bi 0.55306 0.10126 0.63104 1.0000
  Bi  Bi 0.55306 0.10126 0.63104 1.0000
  Bi  Bi 0.54725 0.09836 0.00000 1.0000
  Bi  Bi 0.54725 0.09836 0.00000 1.0000
  Bi  Bi 0.54725 0.09836 0.00000 1.0000
  Bi  Bi 0.54725 0.09836 0.00000 1.0000
  Bi  Bi 0.58869 0.11908 0.36895 1.0000
  Bi  Bi 0.58869 0.11908 0.36895 1.0000
  Bi  Bi 0.57669 0.10126 0.63104 1.0000
  Bi  Bi 0.57669 0.10126 0.63104 1.0000
  Bi  Bi 0.57088 0.09836 0.00000 1.0000
  Bi  Bi 0.57088 0.09836 0.00000 1.0000
  Bi  Bi 0.57088 0.09836 0.00000 1.0000
  Bi  Bi 0.57088 0.09836 0.00000 1.0000
  Bi  Bi 0.61232 0.11908 0.36895 1.0000
  Bi  Bi 0.61232 0.11908 0.36895 1.0000
  Bi  Bi 0.60032 0.10126 0.63104 1.0000
  Bi  Bi 0.60032 0.10126 0.63104 1.0000
  Bi  Bi 0.59450 0.09836 0.00000 1.0000
  Bi  Bi 0.59450 0.09836 0.00000 1.0000
  Bi  Bi 0.59450 0.09836 0.00000 1.0000
  Bi  Bi 0.59450 0.09836 0.00000 1.0000
  Bi  Bi 0.63594 0.11908 0.36895 1.0000
  Bi  Bi 0.63594 0.11908 0.36895 1.0000
  Bi  Bi 0.62394 0.10126 0.63104 1.0000
  Bi  Bi 0.62394 0.10126 0.63104 1.0000
  Bi  Bi 0.61813 0.09836 0.00000 1.0000
  Bi  Bi 0.61813 0.09836 0.00000 1.0000
  Bi  Bi 0.61813 0.09836 0.00000 1.0000
  Bi  Bi 0.61813 0.09836 0.00000 1.0000
  Bi  Bi 0.65957 0.11908 0.36895 1.0000
  Bi  Bi 0.65957 0.11908 0.36895 1.0000
  Bi  Bi 0.64757 0.10126 0.63104 1.0000
  Bi  Bi 0.64757 0.10126 0.63104 1.0000
  Bi  Bi 0.64176 0.09836 0.00000 1.0000
  Bi  Bi 0.64176 0.09836 0.00000 1.0000
  Bi  Bi 0.64176 0.09836 0.00000 1.0000
  Bi  Bi 0.64176 0.09836 0.00000 1.0000
  Bi  Bi 0.68320 0.11908 0.36895 1.0000
  Bi  Bi 0.68320 0.11908 0.36895 1.0000
  Bi  Bi 0.67119 0.10126 0.63104 1.0000
  Bi  Bi 0.67119 0.10126 0.63104 1.0000
  Bi  Bi 0.66538 0.09836 0.00000 1.0000
  Bi  Bi 0.66538 0.09836 0.00000 1.0000
  Bi  Bi 0.66538 0.09836 0.00000 1.0000
  Bi  Bi 0.66538 0.09836 0.00000 1.0000
  Bi  Bi 0.70682 0.11908 0.36895 1.0000
  Bi  Bi 0.70682 0.11908 0.36895 1.0000
  Bi  Bi 0.69482 0.10126 0.63104 1.0000
  Bi  Bi 0.69482 0.10126 0.63104 1.0000
  Bi  Bi 0.68901 0.09836 0.00000 1.0000
  Bi  Bi 0.68901 0.09836 0.00000 1.0000
  Bi  Bi 0.68901 0.09836 0.00000 1.0000
  Bi  Bi 0.68901 0.09836 0.00000 1.0000
  Bi  Bi 0.73045 0.11908 0.36895 1.0000
  Bi  Bi 0.73045 0.11908 0.36895 1.0000
  Bi  Bi 0.71844 0.10126 0.63104 1.0000
  Bi  Bi 0.71844 0.10126 0.63104 1.0000
  Bi  Bi 0.71263 0.09836 0.00000 1.0000
  Bi  Bi 0.71263 0.09836 0.00000 1.0000
  Bi  Bi 0.71263 0.09836 0.00000 1.0000
  Bi  Bi 0.71263 0.09836 0.00000 1.0000
  Bi  Bi 0.75407 0.11908 0.36895 1.0000
  Bi  Bi 0.75407 0.11908 0.36895 1.0000
  Bi  Bi 0.74207 0.10126 0.63104 1.0000
  Bi  Bi 0.74207 0.10126 0.63104 1.0000
  Bi  Bi 0.73626 0.09836 0.00000 1.0000
  Bi  Bi 0.73626 0.09836 0.00000 1.0000
  Bi  Bi 0.73626 0.09836 0.00000 1.0000
  Bi  Bi 0.73626 0.09836 0.00000 1.0000
  Bi  Bi 0.77770 0.11908 0.36895 1.0000
  Bi  Bi 0.77770 0.11908 0.36895 1.0000
  Bi  Bi 0.76570 0.10126 0.63104 1.0000
  Bi  Bi 0.76570 0.10126 0.63104 1.0000
  Bi  Bi 0.75989 0.09836 0.00000 1.0000
  Bi  Bi 0.75989 0.09836 0.00000 1.0000
  Bi  Bi 0.75989 0.09836 0.00000 1.0000
  Bi  Bi 0.75989 0.09836 0.00000 1.0000
  Bi  Bi 0.80133 0.11908 0.36895 1.0000
  Bi  Bi 0.80133 0.11908 0.36895 1.0000
  Bi  Bi 0.78932 0.10126 0.63104 1.0000
  Bi  Bi 0.78932 0.10126 0.63104 1.0000
  Bi  Bi 0.78351 0.09836 0.00000 1.0000
  Bi  Bi 0.78351 0.09836 0.00000 1.0000
  Bi  Bi 0.78351 0.09836 0.00000 1.0000
  Bi  Bi 0.78351 0.09836 0.00000 1.0000
  Bi  Bi 0.82495 0.11908 0.36895 1.0000
  Bi  Bi 0.82495 0.11908 0.36895 1.0000
  Bi  Bi 0.81295 0.10126 0.63104 1.0000
  Bi  Bi 0.81295 0.10126 0.63104 1.0000
  Bi  Bi 0.80714 0.09836 0.00000 1.0000
  Bi  Bi 0.80714 0.09836 0.00000 1.0000
  Bi  Bi 0.80714 0.09836 0.00000 1.0000
  Bi  Bi 0.80714 0.09836 0.00000 1.0000
  Bi  Bi 0.84858 0.11908 0.36895 1.0000
  Bi  Bi 0.84858 0.11908 0.36895 1.0000
  Bi  Bi 0.83657 0.10126 0.63104 1.0000
  Bi  Bi 0.83657 0.10126 0.63104 1.0000
  Bi  Bi 0.83076 0.09836 0.00000 1.0000
  Bi  Bi 0.83076 0.09836 0.00000 1.0000
  Bi  Bi 0.83076 0.09836 0.00000 1.0000
  Bi  Bi 0.83076 0.09836 0.00000 1.0000
  Bi  Bi 0.87220 0.11908 0.36895 1.0000
  Bi  Bi 0.87220 0.11908 0.36895 1.0000
  Bi  Bi 0.86020 0.10126 0.63104 1.0000
  Bi  Bi 0.86020 0.10126 0.63104 1.0000
  Bi  Bi 0.85439 0.09836 0.00000 1.0000
  Bi  Bi 0.85439 0.09836 0.00000 1.0000
  Bi  Bi 0.85439 0.09836 0.00000 1.0000
  Bi  Bi 0.85439 0.09836 0.00000 1.0000
  Bi  Bi 0.89583 0.11908 0.36895 1.0000
  Bi  Bi 0.89583 0.11908 0.36895 1.0000
  Bi  Bi 0.88383 0.10126 0.63104 1.0000
  Bi  Bi 0.88383 0.10126 0.63104 1.0000
  Bi  Bi 0.87802 0.09836 0.00000 1.0000
  Bi  Bi 0.87802 0.09836 0.00000 1.0000
  Bi  Bi 0.87802 0.09836 0.00000 1.0000
  Bi  Bi 0.87802 0.09836 0.00000 1.0000
  Bi  Bi 0.91946 0.11908 0.36895 1.0000
  Bi  Bi 0.91946 0.11908 0.36895 1.0000
  Bi  Bi 0.90745 0.10126 0.63104 1.0000
  Bi  Bi 0.90745 0.10126 0.63104 1.0000
  Bi  Bi 0.90164 0.09836 0.00000 1.0000
  Bi  Bi 0.90164 0.09836 0.00000 1.0000
  Bi  Bi 0.90164 0.09836 0.00000 1.0000
  Bi  Bi 0.90164 0.09836 0.00000 1.0000
  Bi  Bi 0.94308 0.11908 0.36895 1.0000
  Bi  Bi 0.94308 0.11908 0.36895 1.0000
  Bi  Bi 0.93108 0.10126 0.63104 1.0000
  Bi  Bi 0.93108 0.10126 0.63104 1.0000
  Bi  Bi 0.92527 0.09836 0.00000 1.0000
  Bi  Bi 0.92527 0.09836 0.00000 1.0000
  Bi  Bi 0.92527 0.09836 0.00000 1.0000
  Bi  Bi 0.92527 0.09836 0.00000 1.0000
  Bi  Bi 0.96671 0.11908 0.36895 1.0000
  Bi  Bi 0.96671 0.11908 0.36895 1.0000
  Bi  Bi 0.95470 0.10126 0.63104 1.0000
  Bi  Bi 0.95470 0.10126 0.63104 1.0000
  Bi  Bi 0.94889 0.09836 0.00000 1.0000
  Bi  Bi 0.94889 0.09836 0.00000 1.0000
  Bi  Bi 0.94889 0.09836 0.00000 1.0000
  Bi  Bi 0.94889 0.09836 0.00000 1.0000
  Bi  Bi 0.04530 0.14270 0.36895 1.0000
  Bi  Bi 0.04530 0.14270 0.36895 1.0000
  Bi  Bi 0.03329 0.12489 0.63104 1.0000
  Bi  Bi 0.03329 0.12489 0.63104 1.0000
  Mo  Mo 0.02748 0.12198 0.00000 1.0000
  Bi  Bi 0.02748 0.12198 0.00000 1.0000
  Bi  Bi 0.02748 0.12198 0.00000 1.0000
  Mo  Mo 0.02748 0.12198 0.00000 1.0000
  Bi  Bi 0.06892 0.14270 0.36895 1.0000
  Bi  Bi 0.06892 0.14270 0.36895 1.0000
  Bi  Bi 0.05692 0.12489 0.63104 1.0000
  Mo  Mo 0.05692 0.12489 0.63104 1.0000
  Si  Si 0.05111 0.12198 0.00000 1.0000
  Mo  Mo 0.05111 0.12198 0.00000 1.0000
  Mo  Mo 0.05111 0.12198 0.00000 1.0000
  Rb  Rb 0.05111 0.12198 0.00000 1.0000
  Bi  Bi 0.09255 0.14270 0.36895 1.0000
  Mo  Mo 0.09255 0.14270 0.36895 1.0000
  Bi  Bi 0.08054 0.12489 0.63104 1.0000
  Mo  Mo 0.08054 0.12489 0.63104 1.0000
  Si  Si 0.07473 0.12198 0.00000 1.0000
  Si  Si 0.07473 0.12198 0.00000 1.0000
  Si  Si 0.07473 0.12198 0.00000 1.0000
  Dy  Dy 0.07473 0.12198 0.00000 1.0000
  Bi  Bi 0.11617 0.14270 0.36895 1.0000
  Mo  Mo 0.11617 0.14270 0.36895 1.0000
  Bi  Bi 0.10417 0.12489 0.63104 1.0000
  Mo  Mo 0.10417 0.12489 0.63104 1.0000
  Si  Si 0.09836 0.12198 0.00000 1.0000
  Si  Si 0.09836 0.12198 0.00000 1.0000
  Si  Si 0.09836 0.12198 0.00000 1.0000
  Dy  Dy 0.09836 0.12198 0.00000 1.0000
  Bi  Bi 0.13980 0.14270 0.36895 1.0000
  Mo  Mo 0.13980 0.14270 0.36895 1.0000
  Bi  Bi 0.12780 0.12489 0.63104 1.0000
  Mo  Mo 0.12780 0.12489 0.63104 1.0000
  Si  Si 0.12198 0.12198 0.00000 1.0000
  Si  Si 0.12198 0.12198 0.00000 1.0000
  Si  Si 0.12198 0.12198 0.00000 1.0000
  Dy  Dy 0.12198 0.12198 0.00000 1.0000
  Bi  Bi 0.16343 0.14270 0.36895 1.0000
  Mo  Mo 0.16343 0.14270 0.36895 1.0000
  Bi  Bi 0.15142 0.12489 0.63104 1.0000
  Mo  Mo 0.15142 0.12489 0.63104 1.0000
  Si  Si 0.14561 0.12198 0.00000 1.0000
  Si  Si 0.14561 0.12198 0.00000 1.0000
  Mo  Mo 0.14561 0.12198 0.00000 1.0000
  Rb  Rb 0.14561 0.12198 0.00000 1.0000
  Bi  Bi 0.18705 0.14270 0.36895 1.0000
  Bi  Bi 0.18705 0.14270 0.36895 1.0000
  Bi  Bi 0.17505 0.12489 0.63104 1.0000
  Bi  Bi 0.17505 0.12489 0.63104 1.0000
  Mo  Mo 0.16924 0.12198 0.00000 1.0000
  Mo  Mo 0.16924 0.12198 0.00000 1.0000
  Mo  Mo 0.16924 0.12198 0.00000 1.0000
  Si  Si 0.16924 0.12198 0.00000 1.0000
  Bi  Bi 0.21068 0.14270 0.36895 1.0000
  Bi  Bi 0.21068 0.14270 0.36895 1.0000
  Bi  Bi 0.19867 0.12489 0.63104 1.0000
  Bi  Bi 0.19867 0.12489 0.63104 1.0000
  Mo  Mo 0.19286 0.12198 0.00000 1.0000
  Mo  Mo 0.19286 0.12198 0.00000 1.0000
  Mo  Mo 0.19286 0.12198 0.00000 1.0000
  Mo  Mo 0.19286 0.12198 0.00000 1.0000
  Bi  Bi 0.23430 0.14270 0.36895 1.0000
  Bi  Bi 0.23430 0.14270 0.36895 1.0000
  Bi  Bi 0.22230 0.12489 0.63104 1.0000
  Bi  Bi 0.22230 0.12489 0.63104 1.0000
  Bi  Bi 0.21649 0.12198 0.00000 1.0000
  Bi  Bi 0.21649 0.12198 0.00000 1.0000
  Bi  Bi 0.21649 0.12198 0.00000 1.0000
  Mo  Mo 0.21649 0.12198 0.00000 1.0000
  Bi  Bi 0.25793 0.14270 0.36895 1.0000
  Bi  Bi 0.25793 0.14270 0.36895 1.0000
  Bi  Bi 0.24593 0.12489 0.63104 1.0000
  Bi  Bi 0.24593 0.12489 0.63104 1.0000
  Bi  Bi 0.24011 0.12198 0.00000 1.0000
  Bi  Bi 0.24011 0.12198 0.00000 1.0000
  Bi  Bi 0.24011 0.12198 0.00000 1.0000
  Bi  Bi 0.24011 0.12198 0.00000 1.0000
  Bi  Bi 0.28156 0.14270 0.36895 1.0000
  Bi  Bi 0.28156 0.14270 0.36895 1.0000
  Bi  Bi 0.26955 0.12489 0.63104 1.0000
  Bi  Bi 0.26955 0.12489 0.63104 1.0000
  Bi  Bi 0.26374 0.12198 0.00000 1.0000
  Bi  Bi 0.26374 0.12198 0.00000 1.0000
  Bi  Bi 0.26374 0.12198 0.00000 1.0000
  Bi  Bi 0.26374 0.12198 0.00000 1.0000
  Bi  Bi 0.30518 0.14270 0.36895 1.0000
  Bi  Bi 0.30518 0.14270 0.36895 1.0000
  Bi  Bi 0.29318 0.12489 0.63104 1.0000
  Bi  Bi 0.29318 0.12489 0.63104 1.0000
  Bi  Bi 0.28737 0.12198 0.00000 1.0000
  Bi  Bi 0.28737 0.12198 0.00000 1.0000
  Bi  Bi 0.28737 0.12198 0.00000 1.0000
  Bi  Bi 0.28737 0.12198 0.00000 1.0000
  Bi  Bi 0.32881 0.14270 0.36895 1.0000
  Bi  Bi 0.32881 0.14270 0.36895 1.0000
  Bi  Bi 0.31680 0.12489 0.63104 1.0000
  Bi  Bi 0.31680 0.12489 0.63104 1.0000
  Bi  Bi 0.31099 0.12198 0.00000 1.0000
  Bi  Bi 0.31099 0.12198 0.00000 1.0000
  Bi  Bi 0.31099 0.12198 0.00000 1.0000
  Bi  Bi 0.31099 0.12198 0.00000 1.0000
  Bi  Bi 0.35243 0.14270 0.36895 1.0000
  Bi  Bi 0.35243 0.14270 0.36895 1.0000
  Bi  Bi 0.34043 0.12489 0.63104 1.0000
  Bi  Bi 0.34043 0.12489 0.63104 1.0000
  Bi  Bi 0.33462 0.12198 0.00000 1.0000
  Bi  Bi 0.33462 0.12198 0.00000 1.0000
  Bi  Bi 0.33462 0.12198 0.00000 1.0000
  Bi  Bi 0.33462 0.12198 0.00000 1.0000
  Bi  Bi 0.37606 0.14270 0.36895 1.0000
  Bi  Bi 0.37606 0.14270 0.36895 1.0000
  Bi  Bi 0.36406 0.12489 0.63104 1.0000
  Bi  Bi 0.36406 0.12489 0.63104 1.0000
  Bi  Bi 0.35824 0.12198 0.00000 1.0000
  Bi  Bi 0.35824 0.12198 0.00000 1.0000
  Bi  Bi 0.35824 0.12198 0.00000 1.0000
  Bi  Bi 0.35824 0.12198 0.00000 1.0000
  Bi  Bi 0.39968 0.14270 0.36895 1.0000
  Bi  Bi 0.39968 0.14270 0.36895 1.0000
  Bi  Bi 0.38768 0.12489 0.63104 1.0000
  Bi  Bi 0.38768 0.12489 0.63104 1.0000
  Bi  Bi 0.38187 0.12198 0.00000 1.0000
  Bi  Bi 0.38187 0.12198 0.00000 1.0000
  Bi  Bi 0.38187 0.12198 0.00000 1.0000
  Bi  Bi 0.38187 0.12198 0.00000 1.0000
  Bi  Bi 0.42331 0.14270 0.36895 1.0000
  Bi  Bi 0.42331 0.14270 0.36895 1.0000
  Bi  Bi 0.41131 0.12489 0.63104 1.0000
  Bi  Bi 0.41131 0.12489 0.63104 1.0000
  Bi  Bi 0.40550 0.12198 0.00000 1.0000
  Bi  Bi 0.40550 0.12198 0.00000 1.0000
  Bi  Bi 0.40550 0.12198 0.00000 1.0000
  Bi  Bi 0.40550 0.12198 0.00000 1.0000
  Bi  Bi 0.44694 0.14270 0.36895 1.0000
  Bi  Bi 0.44694 0.14270 0.36895 1.0000
  Bi  Bi 0.43493 0.12489 0.63104 1.0000
  Bi  Bi 0.43493 0.12489 0.63104 1.0000
  Bi  Bi 0.42912 0.12198 0.00000 1.0000
  Bi  Bi 0.42912 0.12198 0.00000 1.0000
  Bi  Bi 0.42912 0.12198 0.00000 1.0000
  Bi  Bi 0.42912 0.12198 0.00000 1.0000
  Bi  Bi 0.47056 0.14270 0.36895 1.0000
  Bi  Bi 0.47056 0.14270 0.36895 1.0000
  Bi  Bi 0.45856 0.12489 0.63104 1.0000
  Bi  Bi 0.45856 0.12489 0.63104 1.0000
  Bi  Bi 0.45275 0.12198 0.00000 1.0000
  Bi  Bi 0.45275 0.12198 0.00000 1.0000
  Bi  Bi 0.45275 0.12198 0.00000 1.0000
  Bi  Bi 0.45275 0.12198 0.00000 1.0000
  Bi  Bi 0.49419 0.14270 0.36895 1.0000
  Bi  Bi 0.49419 0.14270 0.36895 1.0000
  Bi  Bi 0.48219 0.12489 0.63104 1.0000
  Bi  Bi 0.48219 0.12489 0.63104 1.0000
  Bi  Bi 0.47637 0.12198 0.00000 1.0000
  Bi  Bi 0.47637 0.12198 0.00000 1.0000
  Bi  Bi 0.47637 0.12198 0.00000 1.0000
  Bi  Bi 0.47637 0.12198 0.00000 1.0000
  Bi  Bi 0.51781 0.14270 0.36895 1.0000
  Bi  Bi 0.51781 0.14270 0.36895 1.0000
  Bi  Bi 0.50581 0.12489 0.63104 1.0000
  Bi  Bi 0.50581 0.12489 0.63104 1.0000
  Bi  Bi 0.50000 0.12198 0.00000 1.0000
  Bi  Bi 0.50000 0.12198 0.00000 1.0000
  Bi  Bi 0.50000 0.12198 0.00000 1.0000
  Bi  Bi 0.50000 0.12198 0.00000 1.0000
  Bi  Bi 0.54144 0.14270 0.36895 1.0000
  Bi  Bi 0.54144 0.14270 0.36895 1.0000
  Bi  Bi 0.52944 0.12489 0.63104 1.0000
  Bi  Bi 0.52944 0.12489 0.63104 1.0000
  Bi  Bi 0.52363 0.12198 0.00000 1.0000
  Bi  Bi 0.52363 0.12198 0.00000 1.0000
  Bi  Bi 0.52363 0.12198 0.00000 1.0000
  Bi  Bi 0.52363 0.12198 0.00000 1.0000
  Bi  Bi 0.56507 0.14270 0.36895 1.0000
  Bi  Bi 0.56507 0.14270 0.36895 1.0000
  Bi  Bi 0.55306 0.12489 0.63104 1.0000
  Bi  Bi 0.55306 0.12489 0.63104 1.0000
  Bi  Bi 0.54725 0.12198 0.00000 1.0000
  Bi  Bi 0.54725 0.12198 0.00000 1.0000
  Bi  Bi 0.54725 0.12198 0.00000 1.0000
  Bi  Bi 0.54725 0.12198 0.00000 1.0000
  Bi  Bi 0.58869 0.14270 0.36895 1.0000
  Bi  Bi 0.58869 0.14270 0.36895 1.0000
  Bi  Bi 0.57669 0.12489 0.63104 1.0000
  Bi  Bi 0.57669 0.12489 0.63104 1.0000
  Bi  Bi 0.57088 0.12198 0.00000 1.0000
  Bi  Bi 0.57088 0.12198 0.00000 1.0000
  Bi  Bi 0.57088 0.12198 0.00000 1.0000
  Bi  Bi 0.57088 0.12198 0.00000 1.0000
  Bi  Bi 0.61232 0.14270 0.36895 1.0000
  Bi  Bi 0.61232 0.14270 0.36895 1.0000
  Bi  Bi 0.60032 0.12489 0.63104 1.0000
  Bi  Bi 0.60032 0.12489 0.63104 1.0000
  Bi  Bi 0.59450 0.12198 0.00000 1.0000
  Bi  Bi 0.59450 0.12198 0.00000 1.0000
  Bi  Bi 0.59450 0.12198 0.00000 1.0000
  Bi  Bi 0.59450 0.12198 0.00000 1.0000
  Bi  Bi 0.63594 0.14270 0.36895 1.0000
  Bi  Bi 0.63594 0.14270 0.36895 1.0000
  Bi  Bi 0.62394 0.12489 0.63104 1.0000
  Bi  Bi 0.62394 0.12489 0.63104 1.0000
  Bi  Bi 0.61813 0.12198 0.00000 1.0000
  Bi  Bi 0.61813 0.12198 0.00000 1.0000
  Bi  Bi 0.61813 0.12198 0.00000 1.0000
  Bi  Bi 0.61813 0.12198 0.00000 1.0000
  Bi  Bi 0.65957 0.14270 0.36895 1.0000
  Bi  Bi 0.65957 0.14270 0.36895 1.0000
  Bi  Bi 0.64757 0.12489 0.63104 1.0000
  Bi  Bi 0.64757 0.12489 0.63104 1.0000
  Bi  Bi 0.64176 0.12198 0.00000 1.0000
  Bi  Bi 0.64176 0.12198 0.00000 1.0000
  Bi  Bi 0.64176 0.12198 0.00000 1.0000
  Bi  Bi 0.64176 0.12198 0.00000 1.0000
  Bi  Bi 0.68320 0.14270 0.36895 1.0000
  Bi  Bi 0.68320 0.14270 0.36895 1.0000
  Bi  Bi 0.67119 0.12489 0.63104 1.0000
  Bi  Bi 0.67119 0.12489 0.63104 1.0000
  Bi  Bi 0.66538 0.12198 0.00000 1.0000
  Bi  Bi 0.66538 0.12198 0.00000 1.0000
  Bi  Bi 0.66538 0.12198 0.00000 1.0000
  Bi  Bi 0.66538 0.12198 0.00000 1.0000
  Bi  Bi 0.70682 0.14270 0.36895 1.0000
  Bi  Bi 0.70682 0.14270 0.36895 1.0000
  Bi  Bi 0.69482 0.12489 0.63104 1.0000
  Bi  Bi 0.69482 0.12489 0.63104 1.0000
  Bi  Bi 0.68901 0.12198 0.00000 1.0000
  Bi  Bi 0.68901 0.12198 0.00000 1.0000
  Bi  Bi 0.68901 0.12198 0.00000 1.0000
  Bi  Bi 0.68901 0.12198 0.00000 1.0000
  Bi  Bi 0.73045 0.14270 0.36895 1.0000
  Bi  Bi 0.73045 0.14270 0.36895 1.0000
  Bi  Bi 0.71844 0.12489 0.63104 1.0000
  Bi  Bi 0.71844 0.12489 0.63104 1.0000
  Bi  Bi 0.71263 0.12198 0.00000 1.0000
  Bi  Bi 0.71263 0.12198 0.00000 1.0000
  Bi  Bi 0.71263 0.12198 0.00000 1.0000
  Bi  Bi 0.71263 0.12198 0.00000 1.0000
  Bi  Bi 0.75407 0.14270 0.36895 1.0000
  Bi  Bi 0.75407 0.14270 0.36895 1.0000
  Bi  Bi 0.74207 0.12489 0.63104 1.0000
  Bi  Bi 0.74207 0.12489 0.63104 1.0000
  Bi  Bi 0.73626 0.12198 0.00000 1.0000
  Bi  Bi 0.73626 0.12198 0.00000 1.0000
  Bi  Bi 0.73626 0.12198 0.00000 1.0000
  Bi  Bi 0.73626 0.12198 0.00000 1.0000
  Bi  Bi 0.77770 0.14270 0.36895 1.0000
  Bi  Bi 0.77770 0.14270 0.36895 1.0000
  Bi  Bi 0.76570 0.12489 0.63104 1.0000
  Bi  Bi 0.76570 0.12489 0.63104 1.0000
  Bi  Bi 0.75989 0.12198 0.00000 1.0000
  Bi  Bi 0.75989 0.12198 0.00000 1.0000
  Bi  Bi 0.75989 0.12198 0.00000 1.0000
  Bi  Bi 0.75989 0.12198 0.00000 1.0000
  Bi  Bi 0.80133 0.14270 0.36895 1.0000
  Bi  Bi 0.80133 0.14270 0.36895 1.0000
  Bi  Bi 0.78932 0.12489 0.63104 1.0000
  Bi  Bi 0.78932 0.12489 0.63104 1.0000
  Bi  Bi 0.78351 0.12198 0.00000 1.0000
  Bi  Bi 0.78351 0.12198 0.00000 1.0000
  Bi  Bi 0.78351 0.12198 0.00000 1.0000
  Bi  Bi 0.78351 0.12198 0.00000 1.0000
  Bi  Bi 0.82495 0.14270 0.36895 1.0000
  Bi  Bi 0.82495 0.14270 0.36895 1.0000
  Bi  Bi 0.81295 0.12489 0.63104 1.0000
  Bi  Bi 0.81295 0.12489 0.63104 1.0000
  Bi  Bi 0.80714 0.12198 0.00000 1.0000
  Bi  Bi 0.80714 0.12198 0.00000 1.0000
  Bi  Bi 0.80714 0.12198 0.00000 1.0000
  Bi  Bi 0.80714 0.12198 0.00000 1.0000
  Bi  Bi 0.84858 0.14270 0.36895 1.0000
  Bi  Bi 0.84858 0.14270 0.36895 1.0000
  Bi  Bi 0.83657 0.12489 0.63104 1.0000
  Bi  Bi 0.83657 0.12489 0.63104 1.0000
  Bi  Bi 0.83076 0.12198 0.00000 1.0000
  Bi  Bi 0.83076 0.12198 0.00000 1.0000
  Bi  Bi 0.83076 0.12198 0.00000 1.0000
  Bi  Bi 0.83076 0.12198 0.00000 1.0000
  Bi  Bi 0.87220 0.14270 0.36895 1.0000
  Bi  Bi 0.87220 0.14270 0.36895 1.0000
  Bi  Bi 0.86020 0.12489 0.63104 1.0000
  Bi  Bi 0.86020 0.12489 0.63104 1.0000
  Bi  Bi 0.85439 0.12198 0.00000 1.0000
  Bi  Bi 0.85439 0.12198 0.00000 1.0000
  Bi  Bi 0.85439 0.12198 0.00000 1.0000
  Bi  Bi 0.85439 0.12198 0.00000 1.0000
  Bi  Bi 0.89583 0.14270 0.36895 1.0000
  Bi  Bi 0.89583 0.14270 0.36895 1.0000
  Bi  Bi 0.88383 0.12489 0.63104 1.0000
  Bi  Bi 0.88383 0.12489 0.63104 1.0000
  Bi  Bi 0.87802 0.12198 0.00000 1.0000
  Bi  Bi 0.87802 0.12198 0.00000 1.0000
  Bi  Bi 0.87802 0.12198 0.00000 1.0000
  Bi  Bi 0.87802 0.12198 0.00000 1.0000
  Bi  Bi 0.91946 0.14270 0.36895 1.0000
  Bi  Bi 0.91946 0.14270 0.36895 1.0000
  Bi  Bi 0.90745 0.12489 0.63104 1.0000
  Bi  Bi 0.90745 0.12489 0.63104 1.0000
  Bi  Bi 0.90164 0.12198 0.00000 1.0000
  Bi  Bi 0.90164 0.12198 0.00000 1.0000
  Bi  Bi 0.90164 0.12198 0.00000 1.0000
  Bi  Bi 0.90164 0.12198 0.00000 1.0000
  Bi  Bi 0.94308 0.14270 0.36895 1.0000
  Bi  Bi 0.94308 0.14270 0.36895 1.0000
  Bi  Bi 0.93108 0.12489 0.63104 1.0000
  Bi  Bi 0.93108 0.12489 0.63104 1.0000
  Bi  Bi 0.92527 0.12198 0.00000 1.0000
  Bi  Bi 0.92527 0.12198 0.00000 1.0000
  Bi  Bi 0.92527 0.12198 0.00000 1.0000
  Bi  Bi 0.92527 0.12198 0.00000 1.0000
  Bi  Bi 0.96671 0.14270 0.36895 1.0000
  Bi  Bi 0.96671 0.14270 0.36895 1.0000
  Bi  Bi 0.95470 0.12489 0.63104 1.0000
  Bi  Bi 0.95470 0.12489 0.63104 1.0000
  Bi  Bi 0.94889 0.12198 0.00000 1.0000
  Bi  Bi 0.94889 0.12198 0.00000 1.0000
  Bi  Bi 0.94889 0.12198 0.00000 1.0000
  Bi  Bi 0.94889 0.12198 0.00000 1.0000
  Bi  Bi 0.04530 0.16633 0.36895 1.0000
  Bi  Bi 0.04530 0.16633 0.36895 1.0000
  Bi  Bi 0.03329 0.14852 0.63104 1.0000
  Bi  Bi 0.03329 0.14852 0.63104 1.0000
  Bi  Bi 0.02748 0.14561 0.00000 1.0000
  Bi  Bi 0.02748 0.14561 0.00000 1.0000
  Bi  Bi 0.02748 0.14561 0.00000 1.0000
  Mo  Mo 0.02748 0.14561 0.00000 1.0000
  Bi  Bi 0.06892 0.16633 0.36895 1.0000
  Bi  Bi 0.06892 0.16633 0.36895 1.0000
  Bi  Bi 0.05692 0.14852 0.63104 1.0000
  Bi  Bi 0.05692 0.14852 0.63104 1.0000
  Mo  Mo 0.05111 0.14561 0.00000 1.0000
  Mo  Mo 0.05111 0.14561 0.00000 1.0000
  Mo  Mo 0.05111 0.14561 0.00000 1.0000
  Si  Si 0.05111 0.14561 0.00000 1.0000
  Bi  Bi 0.09255 0.16633 0.36895 1.0000
  Mo  Mo 0.09255 0.16633 0.36895 1.0000
  Bi  Bi 0.08054 0.14852 0.63104 1.0000
  Mo  Mo 0.08054 0.14852 0.63104 1.0000
  Si  Si 0.07473 0.14561 0.00000 1.0000
  Si  Si 0.07473 0.14561 0.00000 1.0000
  Si  Si 0.07473 0.14561 0.00000 1.0000
  Rb  Rb 0.07473 0.14561 0.00000 1.0000
  Bi  Bi 0.11617 0.16633 0.36895 1.0000
  Mo  Mo 0.11617 0.16633 0.36895 1.0000
  Bi  Bi 0.10417 0.14852 0.63104 1.0000
  Mo  Mo 0.10417 0.14852 0.63104 1.0000
  Si  Si 0.09836 0.14561 0.00000 1.0000
  Si  Si 0.09836 0.14561 0.00000 1.0000
  Si  Si 0.09836 0.14561 0.00000 1.0000
  Rb  Rb 0.09836 0.14561 0.00000 1.0000
  Bi  Bi 0.13980 0.16633 0.36895 1.0000
  Mo  Mo 0.13980 0.16633 0.36895 1.0000
  Bi  Bi 0.12780 0.14852 0.63104 1.0000
  Mo  Mo 0.12780 0.14852 0.63104 1.0000
  Mo  Mo 0.12198 0.14561 0.00000 1.0000
  Mo  Mo 0.12198 0.14561 0.00000 1.0000
  Mo  Mo 0.12198 0.14561 0.00000 1.0000
  Rb  Rb 0.12198 0.14561 0.00000 1.0000
  Bi  Bi 0.16343 0.16633 0.36895 1.0000
  Bi  Bi 0.16343 0.16633 0.36895 1.0000
  Bi  Bi 0.15142 0.14852 0.63104 1.0000
  Bi  Bi 0.15142 0.14852 0.63104 1.0000
  Mo  Mo 0.14561 0.14561 0.00000 1.0000
  Mo  Mo 0.14561 0.14561 0.00000 1.0000
  Mo  Mo 0.14561 0.14561 0.00000 1.0000
  Si  Si 0.14561 0.14561 0.00000 1.0000
  Bi  Bi 0.18705 0.16633 0.36895 1.0000
  Bi  Bi 0.18705 0.16633 0.36895 1.0000
  Bi  Bi 0.17505 0.14852 0.63104 1.0000
  Bi  Bi 0.17505 0.14852 0.63104 1.0000
  Mo  Mo 0.16924 0.14561 0.00000 1.0000
  Bi  Bi 0.16924 0.14561 0.00000 1.0000
  Bi  Bi 0.16924 0.14561 0.00000 1.0000
  Mo  Mo 0.16924 0.14561 0.00000 1.0000
  Bi  Bi 0.21068 0.16633 0.36895 1.0000
  Bi  Bi 0.21068 0.16633 0.36895 1.0000
  Bi  Bi 0.19867 0.14852 0.63104 1.0000
  Bi  Bi 0.19867 0.14852 0.63104 1.0000
  Bi  Bi 0.19286 0.14561 0.00000 1.0000
  Bi  Bi 0.19286 0.14561 0.00000 1.0000
  Bi  Bi 0.19286 0.14561 0.00000 1.0000
  Mo  Mo 0.19286 0.14561 0.00000 1.0000
  Bi  Bi 0.23430 0.16633 0.36895 1.0000
  Bi  Bi 0.23430 0.16633 0.36895 1.0000
  Bi  Bi 0.22230 0.14852 0.63104 1.0000
  Bi  Bi 0.22230 0.14852 0.63104 1.0000
  Bi  Bi 0.21649 0.14561 0.00000 1.0000
  Bi  Bi 0.21649 0.14561 0.00000 1.0000
  Bi  Bi 0.21649 0.14561 0.00000 1.0000
  Bi  Bi 0.21649 0.14561 0.00000 1.0000
  Bi  Bi 0.25793 0.16633 0.36895 1.0000
  Bi  Bi 0.25793 0.16633 0.36895 1.0000
  Bi  Bi 0.24593 0.14852 0.63104 1.0000
  Bi  Bi 0.24593 0.14852 0.63104 1.0000
  Bi  Bi 0.24011 0.14561 0.00000 1.0000
  Bi  Bi 0.24011 0.14561 0.00000 1.0000
  Bi  Bi 0.24011 0.14561 0.00000 1.0000
  Bi  Bi 0.24011 0.14561 0.00000 1.0000
  Bi  Bi 0.28156 0.16633 0.36895 1.0000
  Bi  Bi 0.28156 0.16633 0.36895 1.0000
  Bi  Bi 0.26955 0.14852 0.63104 1.0000
  Bi  Bi 0.26955 0.14852 0.63104 1.0000
  Bi  Bi 0.26374 0.14561 0.00000 1.0000
  Bi  Bi 0.26374 0.14561 0.00000 1.0000
  Bi  Bi 0.26374 0.14561 0.00000 1.0000
  Bi  Bi 0.26374 0.14561 0.00000 1.0000
  Bi  Bi 0.30518 0.16633 0.36895 1.0000
  Bi  Bi 0.30518 0.16633 0.36895 1.0000
  Bi  Bi 0.29318 0.14852 0.63104 1.0000
  Bi  Bi 0.29318 0.14852 0.63104 1.0000
  Bi  Bi 0.28737 0.14561 0.00000 1.0000
  Bi  Bi 0.28737 0.14561 0.00000 1.0000
  Bi  Bi 0.28737 0.14561 0.00000 1.0000
  Bi  Bi 0.28737 0.14561 0.00000 1.0000
  Bi  Bi 0.32881 0.16633 0.36895 1.0000
  Bi  Bi 0.32881 0.16633 0.36895 1.0000
  Bi  Bi 0.31680 0.14852 0.63104 1.0000
  Bi  Bi 0.31680 0.14852 0.63104 1.0000
  Bi  Bi 0.31099 0.14561 0.00000 1.0000
  Bi  Bi 0.31099 0.14561 0.00000 1.0000
  Bi  Bi 0.31099 0.14561 0.00000 1.0000
  Bi  Bi 0.31099 0.14561 0.00000 1.0000
  Bi  Bi 0.35243 0.16633 0.36895 1.0000
  Bi  Bi 0.35243 0.16633 0.36895 1.0000
  Bi  Bi 0.34043 0.14852 0.63104 1.0000
  Bi  Bi 0.34043 0.14852 0.63104 1.0000
  Bi  Bi 0.33462 0.14561 0.00000 1.0000
  Bi  Bi 0.33462 0.14561 0.00000 1.0000
  Bi  Bi 0.33462 0.14561 0.00000 1.0000
  Bi  Bi 0.33462 0.14561 0.00000 1.0000
  Bi  Bi 0.37606 0.16633 0.36895 1.0000
  Bi  Bi 0.37606 0.16633 0.36895 1.0000
  Bi  Bi 0.36406 0.14852 0.63104 1.0000
  Bi  Bi 0.36406 0.14852 0.63104 1.0000
  Bi  Bi 0.35824 0.14561 0.00000 1.0000
  Bi  Bi 0.35824 0.14561 0.00000 1.0000
  Bi  Bi 0.35824 0.14561 0.00000 1.0000
  Bi  Bi 0.35824 0.14561 0.00000 1.0000
  Bi  Bi 0.39968 0.16633 0.36895 1.0000
  Bi  Bi 0.39968 0.16633 0.36895 1.0000
  Bi  Bi 0.38768 0.14852 0.63104 1.0000
  Bi  Bi 0.38768 0.14852 0.63104 1.0000
  Bi  Bi 0.38187 0.14561 0.00000 1.0000
  Bi  Bi 0.38187 0.14561 0.00000 1.0000
  Bi  Bi 0.38187 0.14561 0.00000 1.0000
  Bi  Bi 0.38187 0.14561 0.00000 1.0000
  Bi  Bi 0.42331 0.16633 0.36895 1.0000
  Bi  Bi 0.42331 0.16633 0.36895 1.0000
  Bi  Bi 0.41131 0.14852 0.63104 1.0000
  Bi  Bi 0.41131 0.14852 0.63104 1.0000
  Bi  Bi 0.40550 0.14561 0.00000 1.0000
  Bi  Bi 0.40550 0.14561 0.00000 1.0000
  Bi  Bi 0.40550 0.14561 0.00000 1.0000
  Bi  Bi 0.40550 0.14561 0.00000 1.0000
  Bi  Bi 0.44694 0.16633 0.36895 1.0000
  Bi  Bi 0.44694 0.16633 0.36895 1.0000
  Bi  Bi 0.43493 0.14852 0.63104 1.0000
  Bi  Bi 0.43493 0.14852 0.63104 1.0000
  Bi  Bi 0.42912 0.14561 0.00000 1.0000
  Bi  Bi 0.42912 0.14561 0.00000 1.0000
  Bi  Bi 0.42912 0.14561 0.00000 1.0000
  Bi  Bi 0.42912 0.14561 0.00000 1.0000
  Bi  Bi 0.47056 0.16633 0.36895 1.0000
  Bi  Bi 0.47056 0.16633 0.36895 1.0000
  Bi  Bi 0.45856 0.14852 0.63104 1.0000
  Bi  Bi 0.45856 0.14852 0.63104 1.0000
  Bi  Bi 0.45275 0.14561 0.00000 1.0000
  Bi  Bi 0.45275 0.14561 0.00000 1.0000
  Bi  Bi 0.45275 0.14561 0.00000 1.0000
  Bi  Bi 0.45275 0.14561 0.00000 1.0000
  Bi  Bi 0.49419 0.16633 0.36895 1.0000
  Bi  Bi 0.49419 0.16633 0.36895 1.0000
  Bi  Bi 0.48219 0.14852 0.63104 1.0000
  Bi  Bi 0.48219 0.14852 0.63104 1.0000
  Bi  Bi 0.47637 0.14561 0.00000 1.0000
  Bi  Bi 0.47637 0.14561 0.00000 1.0000
  Bi  Bi 0.47637 0.14561 0.00000 1.0000
  Bi  Bi 0.47637 0.14561 0.00000 1.0000
  Bi  Bi 0.51781 0.16633 0.36895 1.0000
  Bi  Bi 0.51781 0.16633 0.36895 1.0000
  Bi  Bi 0.50581 0.14852 0.63104 1.0000
  Bi  Bi 0.50581 0.14852 0.63104 1.0000
  Bi  Bi 0.50000 0.14561 0.00000 1.0000
  Bi  Bi 0.50000 0.14561 0.00000 1.0000
  Bi  Bi 0.50000 0.14561 0.00000 1.0000
  Bi  Bi 0.50000 0.14561 0.00000 1.0000
  Bi  Bi 0.54144 0.16633 0.36895 1.0000
  Bi  Bi 0.54144 0.16633 0.36895 1.0000
  Bi  Bi 0.52944 0.14852 0.63104 1.0000
  Bi  Bi 0.52944 0.14852 0.63104 1.0000
  Bi  Bi 0.52363 0.14561 0.00000 1.0000
  Bi  Bi 0.52363 0.14561 0.00000 1.0000
  Bi  Bi 0.52363 0.14561 0.00000 1.0000
  Bi  Bi 0.52363 0.14561 0.00000 1.0000
  Bi  Bi 0.56507 0.16633 0.36895 1.0000
  Bi  Bi 0.56507 0.16633 0.36895 1.0000
  Bi  Bi 0.55306 0.14852 0.63104 1.0000
  Bi  Bi 0.55306 0.14852 0.63104 1.0000
  Bi  Bi 0.54725 0.14561 0.00000 1.0000
  Bi  Bi 0.54725 0.14561 0.00000 1.0000
  Bi  Bi 0.54725 0.14561 0.00000 1.0000
  Bi  Bi 0.54725 0.14561 0.00000 1.0000
  Bi  Bi 0.58869 0.16633 0.36895 1.0000
  Bi  Bi 0.58869 0.16633 0.36895 1.0000
  Bi  Bi 0.57669 0.14852 0.63104 1.0000
  Bi  Bi 0.57669 0.14852 0.63104 1.0000
  Bi  Bi 0.57088 0.14561 0.00000 1.0000
  Bi  Bi 0.57088 0.14561 0.00000 1.0000
  Bi  Bi 0.57088 0.14561 0.00000 1.0000
  Bi  Bi 0.57088 0.14561 0.00000 1.0000
  Bi  Bi 0.61232 0.16633 0.36895 1.0000
  Bi  Bi 0.61232 0.16633 0.36895 1.0000
  Bi  Bi 0.60032 0.14852 0.63104 1.0000
  Bi  Bi 0.60032 0.14852 0.63104 1.0000
  Bi  Bi 0.59450 0.14561 0.00000 1.0000
  Bi  Bi 0.59450 0.14561 0.00000 1.0000
  Bi  Bi 0.59450 0.14561 0.00000 1.0000
  Bi  Bi 0.59450 0.14561 0.00000 1.0000
  Bi  Bi 0.63594 0.16633 0.36895 1.0000
  Bi  Bi 0.63594 0.16633 0.36895 1.0000
  Bi  Bi 0.62394 0.14852 0.63104 1.0000
  Bi  Bi 0.62394 0.14852 0.63104 1.0000
  Bi  Bi 0.61813 0.14561 0.00000 1.0000
  Bi  Bi 0.61813 0.14561 0.00000 1.0000
  Bi  Bi 0.61813 0.14561 0.00000 1.0000
  Bi  Bi 0.61813 0.14561 0.00000 1.0000
  Bi  Bi 0.65957 0.16633 0.36895 1.0000
  Bi  Bi 0.65957 0.16633 0.36895 1.0000
  Bi  Bi 0.64757 0.14852 0.63104 1.0000
  Bi  Bi 0.64757 0.14852 0.63104 1.0000
  Bi  Bi 0.64176 0.14561 0.00000 1.0000
  Bi  Bi 0.64176 0.14561 0.00000 1.0000
  Bi  Bi 0.64176 0.14561 0.00000 1.0000
  Bi  Bi 0.64176 0.14561 0.00000 1.0000
  Bi  Bi 0.68320 0.16633 0.36895 1.0000
  Bi  Bi 0.68320 0.16633 0.36895 1.0000
  Bi  Bi 0.67119 0.14852 0.63104 1.0000
  Bi  Bi 0.67119 0.14852 0.63104 1.0000
  Bi  Bi 0.66538 0.14561 0.00000 1.0000
  Bi  Bi 0.66538 0.14561 0.00000 1.0000
  Bi  Bi 0.66538 0.14561 0.00000 1.0000
  Bi  Bi 0.66538 0.14561 0.00000 1.0000
  Bi  Bi 0.70682 0.16633 0.36895 1.0000
  Bi  Bi 0.70682 0.16633 0.36895 1.0000
  Bi  Bi 0.69482 0.14852 0.63104 1.0000
  Bi  Bi 0.69482 0.14852 0.63104 1.0000
  Bi  Bi 0.68901 0.14561 0.00000 1.0000
  Bi  Bi 0.68901 0.14561 0.00000 1.0000
  Bi  Bi 0.68901 0.14561 0.00000 1.0000
  Bi  Bi 0.68901 0.14561 0.00000 1.0000
  Bi  Bi 0.73045 0.16633 0.36895 1.0000
  Bi  Bi 0.73045 0.16633 0.36895 1.0000
  Bi  Bi 0.71844 0.14852 0.63104 1.0000
  Bi  Bi 0.71844 0.14852 0.63104 1.0000
  Bi  Bi 0.71263 0.14561 0.00000 1.0000
  Bi  Bi 0.71263 0.14561 0.00000 1.0000
  Bi  Bi 0.71263 0.14561 0.00000 1.0000
  Bi  Bi 0.71263 0.14561 0.00000 1.0000
  Bi  Bi 0.75407 0.16633 0.36895 1.0000
  Bi  Bi 0.75407 0.16633 0.36895 1.0000
  Bi  Bi 0.74207 0.14852 0.63104 1.0000
  Bi  Bi 0.74207 0.14852 0.63104 1.0000
  Bi  Bi 0.73626 0.14561 0.00000 1.0000
  Bi  Bi 0.73626 0.14561 0.00000 1.0000
  Bi  Bi 0.73626 0.14561 0.00000 1.0000
  Bi  Bi 0.73626 0.14561 0.00000 1.0000
  Bi  Bi 0.77770 0.16633 0.36895 1.0000
  Bi  Bi 0.77770 0.16633 0.36895 1.0000
  Bi  Bi 0.76570 0.14852 0.63104 1.0000
  Bi  Bi 0.76570 0.14852 0.63104 1.0000
  Bi  Bi 0.75989 0.14561 0.00000 1.0000
  Bi  Bi 0.75989 0.14561 0.00000 1.0000
  Bi  Bi 0.75989 0.14561 0.00000 1.0000
  Bi  Bi 0.75989 0.14561 0.00000 1.0000
  Bi  Bi 0.80133 0.16633 0.36895 1.0000
  Bi  Bi 0.80133 0.16633 0.36895 1.0000
  Bi  Bi 0.78932 0.14852 0.63104 1.0000
  Bi  Bi 0.78932 0.14852 0.63104 1.0000
  Bi  Bi 0.78351 0.14561 0.00000 1.0000
  Bi  Bi 0.78351 0.14561 0.00000 1.0000
  Bi  Bi 0.78351 0.14561 0.00000 1.0000
  Bi  Bi 0.78351 0.14561 0.00000 1.0000
  Bi  Bi 0.82495 0.16633 0.36895 1.0000
  Bi  Bi 0.82495 0.16633 0.36895 1.0000
  Bi  Bi 0.81295 0.14852 0.63104 1.0000
  Bi  Bi 0.81295 0.14852 0.63104 1.0000
  Bi  Bi 0.80714 0.14561 0.00000 1.0000
  Bi  Bi 0.80714 0.14561 0.00000 1.0000
  Bi  Bi 0.80714 0.14561 0.00000 1.0000
  Bi  Bi 0.80714 0.14561 0.00000 1.0000
  Bi  Bi 0.84858 0.16633 0.36895 1.0000
  Bi  Bi 0.84858 0.16633 0.36895 1.0000
  Bi  Bi 0.83657 0.14852 0.63104 1.0000
  Bi  Bi 0.83657 0.14852 0.63104 1.0000
  Bi  Bi 0.83076 0.14561 0.00000 1.0000
  Bi  Bi 0.83076 0.14561 0.00000 1.0000
  Bi  Bi 0.83076 0.14561 0.00000 1.0000
  Bi  Bi 0.83076 0.14561 0.00000 1.0000
  Bi  Bi 0.87220 0.16633 0.36895 1.0000
  Bi  Bi 0.87220 0.16633 0.36895 1.0000
  Bi  Bi 0.86020 0.14852 0.63104 1.0000
  Bi  Bi 0.86020 0.14852 0.63104 1.0000
  Bi  Bi 0.85439 0.14561 0.00000 1.0000
  Bi  Bi 0.85439 0.14561 0.00000 1.0000
  Bi  Bi 0.85439 0.14561 0.00000 1.0000
  Bi  Bi 0.85439 0.14561 0.00000 1.0000
  Bi  Bi 0.89583 0.16633 0.36895 1.0000
  Bi  Bi 0.89583 0.16633 0.36895 1.0000
  Bi  Bi 0.88383 0.14852 0.63104 1.0000
  Bi  Bi 0.88383 0.14852 0.63104 1.0000
  Bi  Bi 0.87802 0.14561 0.00000 1.0000
  Bi  Bi 0.87802 0.14561 0.00000 1.0000
  Bi  Bi 0.87802 0.14561 0.00000 1.0000
  Bi  Bi 0.87802 0.14561 0.00000 1.0000
  Bi  Bi 0.91946 0.16633 0.36895 1.0000
  Bi  Bi 0.91946 0.16633 0.36895 1.0000
  Bi  Bi 0.90745 0.14852 0.63104 1.0000
  Bi  Bi 0.90745 0.14852 0.63104 1.0000
  Bi  Bi 0.90164 0.14561 0.00000 1.0000
  Bi  Bi 0.90164 0.14561 0.00000 1.0000
  Bi  Bi 0.90164 0.14561 0.00000 1.0000
  Bi  Bi 0.90164 0.14561 0.00000 1.0000
  Bi  Bi 0.94308 0.16633 0.36895 1.0000
  Bi  Bi 0.94308 0.16633 0.36895 1.0000
  Bi  Bi 0.93108 0.14852 0.63104 1.0000
  Bi  Bi 0.93108 0.14852 0.63104 1.0000
  Bi  Bi 0.92527 0.14561 0.00000 1.0000
  Bi  Bi 0.92527 0.14561 0.00000 1.0000
  Bi  Bi 0.92527 0.14561 0.00000 1.0000
  Bi  Bi 0.92527 0.14561 0.00000 1.0000
  Bi  Bi 0.96671 0.16633 0.36895 1.0000
  Bi  Bi 0.96671 0.16633 0.36895 1.0000
  Bi  Bi 0.95470 0.14852 0.63104 1.0000
  Bi  Bi 0.95470 0.14852 0.63104 1.0000
  Bi  Bi 0.94889 0.14561 0.00000 1.0000
  Bi  Bi 0.94889 0.14561 0.00000 1.0000
  Bi  Bi 0.94889 0.14561 0.00000 1.0000
  Bi  Bi 0.94889 0.14561 0.00000 1.0000
  Bi  Bi 0.04530 0.18996 0.36895 1.0000
  Bi  Bi 0.04530 0.18996 0.36895 1.0000
  Bi  Bi 0.03329 0.17214 0.63104 1.0000
  Bi  Bi 0.03329 0.17214 0.63104 1.0000
  Bi  Bi 0.02748 0.16924 0.00000 1.0000
  Bi  Bi 0.02748 0.16924 0.00000 1.0000
  Bi  Bi 0.02748 0.16924 0.00000 1.0000
  Bi  Bi 0.02748 0.16924 0.00000 1.0000
  Bi  Bi 0.06892 0.18996 0.36895 1.0000
  Bi  Bi 0.06892 0.18996 0.36895 1.0000
  Bi  Bi 0.05692 0.17214 0.63104 1.0000
  Bi  Bi 0.05692 0.17214 0.63104 1.0000
  Mo  Mo 0.05111 0.16924 0.00000 1.0000
  Mo  Mo 0.05111 0.16924 0.00000 1.0000
  Mo  Mo 0.05111 0.16924 0.00000 1.0000
  Si  Si 0.05111 0.16924 0.00000 1.0000
  Bi  Bi 0.09255 0.18996 0.36895 1.0000
  Bi  Bi 0.09255 0.18996 0.36895 1.0000
  Bi  Bi 0.08054 0.17214 0.63104 1.0000
  Bi  Bi 0.08054 0.17214 0.63104 1.0000
  Mo  Mo 0.07473 0.16924 0.00000 1.0000
  Mo  Mo 0.07473 0.16924 0.00000 1.0000
  Mo  Mo 0.07473 0.16924 0.00000 1.0000
  Rb  Rb 0.07473 0.16924 0.00000 1.0000
  Bi  Bi 0.11617 0.18996 0.36895 1.0000
  Bi  Bi 0.11617 0.18996 0.36895 1.0000
  Bi  Bi 0.10417 0.17214 0.63104 1.0000
  Bi  Bi 0.10417 0.17214 0.63104 1.0000
  Mo  Mo 0.09836 0.16924 0.00000 1.0000
  Mo  Mo 0.09836 0.16924 0.00000 1.0000
  Si  Si 0.09836 0.16924 0.00000 1.0000
  Rb  Rb 0.09836 0.16924 0.00000 1.0000
  Bi  Bi 0.13980 0.18996 0.36895 1.0000
  Bi  Bi 0.13980 0.18996 0.36895 1.0000
  Bi  Bi 0.12780 0.17214 0.63104 1.0000
  Bi  Bi 0.12780 0.17214 0.63104 1.0000
  Mo  Mo 0.12198 0.16924 0.00000 1.0000
  Mo  Mo 0.12198 0.16924 0.00000 1.0000
  Mo  Mo 0.12198 0.16924 0.00000 1.0000
  Si  Si 0.12198 0.16924 0.00000 1.0000
  Bi  Bi 0.16343 0.18996 0.36895 1.0000
  Bi  Bi 0.16343 0.18996 0.36895 1.0000
  Bi  Bi 0.15142 0.17214 0.63104 1.0000
  Bi  Bi 0.15142 0.17214 0.63104 1.0000
  Bi  Bi 0.14561 0.16924 0.00000 1.0000
  Bi  Bi 0.14561 0.16924 0.00000 1.0000
  Bi  Bi 0.14561 0.16924 0.00000 1.0000
  Si  Si 0.14561 0.16924 0.00000 1.0000
  Bi  Bi 0.18705 0.18996 0.36895 1.0000
  Bi  Bi 0.18705 0.18996 0.36895 1.0000
  Bi  Bi 0.17505 0.17214 0.63104 1.0000
  Bi  Bi 0.17505 0.17214 0.63104 1.0000
  Bi  Bi 0.16924 0.16924 0.00000 1.0000
  Bi  Bi 0.16924 0.16924 0.00000 1.0000
  Bi  Bi 0.16924 0.16924 0.00000 1.0000
  Mo  Mo 0.16924 0.16924 0.00000 1.0000
  Bi  Bi 0.21068 0.18996 0.36895 1.0000
  Bi  Bi 0.21068 0.18996 0.36895 1.0000
  Bi  Bi 0.19867 0.17214 0.63104 1.0000
  Bi  Bi 0.19867 0.17214 0.63104 1.0000
  Bi  Bi 0.19286 0.16924 0.00000 1.0000
  Bi  Bi 0.19286 0.16924 0.00000 1.0000
  Bi  Bi 0.19286 0.16924 0.00000 1.0000
  Bi  Bi 0.19286 0.16924 0.00000 1.0000
  Bi  Bi 0.23430 0.18996 0.36895 1.0000
  Bi  Bi 0.23430 0.18996 0.36895 1.0000
  Bi  Bi 0.22230 0.17214 0.63104 1.0000
  Bi  Bi 0.22230 0.17214 0.63104 1.0000
  Bi  Bi 0.21649 0.16924 0.00000 1.0000
  Bi  Bi 0.21649 0.16924 0.00000 1.0000
  Bi  Bi 0.21649 0.16924 0.00000 1.0000
  Bi  Bi 0.21649 0.16924 0.00000 1.0000
  Bi  Bi 0.25793 0.18996 0.36895 1.0000
  Bi  Bi 0.25793 0.18996 0.36895 1.0000
  Bi  Bi 0.24593 0.17214 0.63104 1.0000
  Bi  Bi 0.24593 0.17214 0.63104 1.0000
  Bi  Bi 0.24011 0.16924 0.00000 1.0000
  Bi  Bi 0.24011 0.16924 0.00000 1.0000
  Bi  Bi 0.24011 0.16924 0.00000 1.0000
  Bi  Bi 0.24011 0.16924 0.00000 1.0000
  Bi  Bi 0.28156 0.18996 0.36895 1.0000
  Bi  Bi 0.28156 0.18996 0.36895 1.0000
  Bi  Bi 0.26955 0.17214 0.63104 1.0000
  Bi  Bi 0.26955 0.17214 0.63104 1.0000
  Bi  Bi 0.26374 0.16924 0.00000 1.0000
  Bi  Bi 0.26374 0.16924 0.00000 1.0000
  Bi  Bi 0.26374 0.16924 0.00000 1.0000
  Bi  Bi 0.26374 0.16924 0.00000 1.0000
  Bi  Bi 0.30518 0.18996 0.36895 1.0000
  Bi  Bi 0.30518 0.18996 0.36895 1.0000
  Bi  Bi 0.29318 0.17214 0.63104 1.0000
  Bi  Bi 0.29318 0.17214 0.63104 1.0000
  Bi  Bi 0.28737 0.16924 0.00000 1.0000
  Bi  Bi 0.28737 0.16924 0.00000 1.0000
  Bi  Bi 0.28737 0.16924 0.00000 1.0000
  Bi  Bi 0.28737 0.16924 0.00000 1.0000
  Bi  Bi 0.32881 0.18996 0.36895 1.0000
  Bi  Bi 0.32881 0.18996 0.36895 1.0000
  Bi  Bi 0.31680 0.17214 0.63104 1.0000
  Bi  Bi 0.31680 0.17214 0.63104 1.0000
  Bi  Bi 0.31099 0.16924 0.00000 1.0000
  Bi  Bi 0.31099 0.16924 0.00000 1.0000
  Bi  Bi 0.31099 0.16924 0.00000 1.0000
  Bi  Bi 0.31099 0.16924 0.00000 1.0000
  Bi  Bi 0.35243 0.18996 0.36895 1.0000
  Bi  Bi 0.35243 0.18996 0.36895 1.0000
  Bi  Bi 0.34043 0.17214 0.63104 1.0000
  Bi  Bi 0.34043 0.17214 0.63104 1.0000
  Bi  Bi 0.33462 0.16924 0.00000 1.0000
  Bi  Bi 0.33462 0.16924 0.00000 1.0000
  Bi  Bi 0.33462 0.16924 0.00000 1.0000
  Bi  Bi 0.33462 0.16924 0.00000 1.0000
  Bi  Bi 0.37606 0.18996 0.36895 1.0000
  Bi  Bi 0.37606 0.18996 0.36895 1.0000
  Bi  Bi 0.36406 0.17214 0.63104 1.0000
  Bi  Bi 0.36406 0.17214 0.63104 1.0000
  Bi  Bi 0.35824 0.16924 0.00000 1.0000
  Bi  Bi 0.35824 0.16924 0.00000 1.0000
  Bi  Bi 0.35824 0.16924 0.00000 1.0000
  Bi  Bi 0.35824 0.16924 0.00000 1.0000
  Bi  Bi 0.39968 0.18996 0.36895 1.0000
  Bi  Bi 0.39968 0.18996 0.36895 1.0000
  Bi  Bi 0.38768 0.17214 0.63104 1.0000
  Bi  Bi 0.38768 0.17214 0.63104 1.0000
  Bi  Bi 0.38187 0.16924 0.00000 1.0000
  Bi  Bi 0.38187 0.16924 0.00000 1.0000
  Bi  Bi 0.38187 0.16924 0.00000 1.0000
  Bi  Bi 0.38187 0.16924 0.00000 1.0000
  Bi  Bi 0.42331 0.18996 0.36895 1.0000
  Bi  Bi 0.42331 0.18996 0.36895 1.0000
  Bi  Bi 0.41131 0.17214 0.63104 1.0000
  Bi  Bi 0.41131 0.17214 0.63104 1.0000
  Bi  Bi 0.40550 0.16924 0.00000 1.0000
  Bi  Bi 0.40550 0.16924 0.00000 1.0000
  Bi  Bi 0.40550 0.16924 0.00000 1.0000
  Bi  Bi 0.40550 0.16924 0.00000 1.0000
  Bi  Bi 0.44694 0.18996 0.36895 1.0000
  Bi  Bi 0.44694 0.18996 0.36895 1.0000
  Bi  Bi 0.43493 0.17214 0.63104 1.0000
  Bi  Bi 0.43493 0.17214 0.63104 1.0000
  Bi  Bi 0.42912 0.16924 0.00000 1.0000
  Bi  Bi 0.42912 0.16924 0.00000 1.0000
  Bi  Bi 0.42912 0.16924 0.00000 1.0000
  Bi  Bi 0.42912 0.16924 0.00000 1.0000
  Bi  Bi 0.47056 0.18996 0.36895 1.0000
  Bi  Bi 0.47056 0.18996 0.36895 1.0000
  Bi  Bi 0.45856 0.17214 0.63104 1.0000
  Bi  Bi 0.45856 0.17214 0.63104 1.0000
  Bi  Bi 0.45275 0.16924 0.00000 1.0000
  Bi  Bi 0.45275 0.16924 0.00000 1.0000
  Bi  Bi 0.45275 0.16924 0.00000 1.0000
  Bi  Bi 0.45275 0.16924 0.00000 1.0000
  Bi  Bi 0.49419 0.18996 0.36895 1.0000
  Bi  Bi 0.49419 0.18996 0.36895 1.0000
  Bi  Bi 0.48219 0.17214 0.63104 1.0000
  Bi  Bi 0.48219 0.17214 0.63104 1.0000
  Bi  Bi 0.47637 0.16924 0.00000 1.0000
  Bi  Bi 0.47637 0.16924 0.00000 1.0000
  Bi  Bi 0.47637 0.16924 0.00000 1.0000
  Bi  Bi 0.47637 0.16924 0.00000 1.0000
  Bi  Bi 0.51781 0.18996 0.36895 1.0000
  Bi  Bi 0.51781 0.18996 0.36895 1.0000
  Bi  Bi 0.50581 0.17214 0.63104 1.0000
  Bi  Bi 0.50581 0.17214 0.63104 1.0000
  Bi  Bi 0.50000 0.16924 0.00000 1.0000
  Bi  Bi 0.50000 0.16924 0.00000 1.0000
  Bi  Bi 0.50000 0.16924 0.00000 1.0000
  Bi  Bi 0.50000 0.16924 0.00000 1.0000
  Bi  Bi 0.54144 0.18996 0.36895 1.0000
  Bi  Bi 0.54144 0.18996 0.36895 1.0000
  Bi  Bi 0.52944 0.17214 0.63104 1.0000
  Bi  Bi 0.52944 0.17214 0.63104 1.0000
  Bi  Bi 0.52363 0.16924 0.00000 1.0000
  Bi  Bi 0.52363 0.16924 0.00000 1.0000
  Bi  Bi 0.52363 0.16924 0.00000 1.0000
  Bi  Bi 0.52363 0.16924 0.00000 1.0000
  Bi  Bi 0.56507 0.18996 0.36895 1.0000
  Bi  Bi 0.56507 0.18996 0.36895 1.0000
  Bi  Bi 0.55306 0.17214 0.63104 1.0000
  Bi  Bi 0.55306 0.17214 0.63104 1.0000
  Bi  Bi 0.54725 0.16924 0.00000 1.0000
  Bi  Bi 0.54725 0.16924 0.00000 1.0000
  Bi  Bi 0.54725 0.16924 0.00000 1.0000
  Bi  Bi 0.54725 0.16924 0.00000 1.0000
  Bi  Bi 0.58869 0.18996 0.36895 1.0000
  Bi  Bi 0.58869 0.18996 0.36895 1.0000
  Bi  Bi 0.57669 0.17214 0.63104 1.0000
  Bi  Bi 0.57669 0.17214 0.63104 1.0000
  Bi  Bi 0.57088 0.16924 0.00000 1.0000
  Bi  Bi 0.57088 0.16924 0.00000 1.0000
  Bi  Bi 0.57088 0.16924 0.00000 1.0000
  Bi  Bi 0.57088 0.16924 0.00000 1.0000
  Bi  Bi 0.61232 0.18996 0.36895 1.0000
  Bi  Bi 0.61232 0.18996 0.36895 1.0000
  Bi  Bi 0.60032 0.17214 0.63104 1.0000
  Bi  Bi 0.60032 0.17214 0.63104 1.0000
  Bi  Bi 0.59450 0.16924 0.00000 1.0000
  Bi  Bi 0.59450 0.16924 0.00000 1.0000
  Bi  Bi 0.59450 0.16924 0.00000 1.0000
  Bi  Bi 0.59450 0.16924 0.00000 1.0000
  Bi  Bi 0.63594 0.18996 0.36895 1.0000
  Bi  Bi 0.63594 0.18996 0.36895 1.0000
  Bi  Bi 0.62394 0.17214 0.63104 1.0000
  Bi  Bi 0.62394 0.17214 0.63104 1.0000
  Bi  Bi 0.61813 0.16924 0.00000 1.0000
  Bi  Bi 0.61813 0.16924 0.00000 1.0000
  Bi  Bi 0.61813 0.16924 0.00000 1.0000
  Bi  Bi 0.61813 0.16924 0.00000 1.0000
  Bi  Bi 0.65957 0.18996 0.36895 1.0000
  Bi  Bi 0.65957 0.18996 0.36895 1.0000
  Bi  Bi 0.64757 0.17214 0.63104 1.0000
  Bi  Bi 0.64757 0.17214 0.63104 1.0000
  Bi  Bi 0.64176 0.16924 0.00000 1.0000
  Bi  Bi 0.64176 0.16924 0.00000 1.0000
  Bi  Bi 0.64176 0.16924 0.00000 1.0000
  Bi  Bi 0.64176 0.16924 0.00000 1.0000
  Bi  Bi 0.68320 0.18996 0.36895 1.0000
  Bi  Bi 0.68320 0.18996 0.36895 1.0000
  Bi  Bi 0.67119 0.17214 0.63104 1.0000
  Bi  Bi 0.67119 0.17214 0.63104 1.0000
  Bi  Bi 0.66538 0.16924 0.00000 1.0000
  Bi  Bi 0.66538 0.16924 0.00000 1.0000
  Bi  Bi 0.66538 0.16924 0.00000 1.0000
  Bi  Bi 0.66538 0.16924 0.00000 1.0000
  Bi  Bi 0.70682 0.18996 0.36895 1.0000
  Bi  Bi 0.70682 0.18996 0.36895 1.0000
  Bi  Bi 0.69482 0.17214 0.63104 1.0000
  Bi  Bi 0.69482 0.17214 0.63104 1.0000
  Bi  Bi 0.68901 0.16924 0.00000 1.0000
  Bi  Bi 0.68901 0.16924 0.00000 1.0000
  Bi  Bi 0.68901 0.16924 0.00000 1.0000
  Bi  Bi 0.68901 0.16924 0.00000 1.0000
  Bi  Bi 0.73045 0.18996 0.36895 1.0000
  Bi  Bi 0.73045 0.18996 0.36895 1.0000
  Bi  Bi 0.71844 0.17214 0.63104 1.0000
  Bi  Bi 0.71844 0.17214 0.63104 1.0000
  Bi  Bi 0.71263 0.16924 0.00000 1.0000
  Bi  Bi 0.71263 0.16924 0.00000 1.0000
  Bi  Bi 0.71263 0.16924 0.00000 1.0000
  Bi  Bi 0.71263 0.16924 0.00000 1.0000
  Bi  Bi 0.75407 0.18996 0.36895 1.0000
  Bi  Bi 0.75407 0.18996 0.36895 1.0000
  Bi  Bi 0.74207 0.17214 0.63104 1.0000
  Bi  Bi 0.74207 0.17214 0.63104 1.0000
  Bi  Bi 0.73626 0.16924 0.00000 1.0000
  Bi  Bi 0.73626 0.16924 0.00000 1.0000
  Bi  Bi 0.73626 0.16924 0.00000 1.0000
  Bi  Bi 0.73626 0.16924 0.00000 1.0000
  Bi  Bi 0.77770 0.18996 0.36895 1.0000
  Bi  Bi 0.77770 0.18996 0.36895 1.0000
  Bi  Bi 0.76570 0.17214 0.63104 1.0000
  Bi  Bi 0.76570 0.17214 0.63104 1.0000
  Bi  Bi 0.75989 0.16924 0.00000 1.0000
  Bi  Bi 0.75989 0.16924 0.00000 1.0000
  Bi  Bi 0.75989 0.16924 0.00000 1.0000
  Bi  Bi 0.75989 0.16924 0.00000 1.0000
  Bi  Bi 0.80133 0.18996 0.36895 1.0000
  Bi  Bi 0.80133 0.18996 0.36895 1.0000
  Bi  Bi 0.78932 0.17214 0.63104 1.0000
  Bi  Bi 0.78932 0.17214 0.63104 1.0000
  Bi  Bi 0.78351 0.16924 0.00000 1.0000
  Bi  Bi 0.78351 0.16924 0.00000 1.0000
  Bi  Bi 0.78351 0.16924 0.00000 1.0000
  Bi  Bi 0.78351 0.16924 0.00000 1.0000
  Bi  Bi 0.82495 0.18996 0.36895 1.0000
  Bi  Bi 0.82495 0.18996 0.36895 1.0000
  Bi  Bi 0.81295 0.17214 0.63104 1.0000
  Bi  Bi 0.81295 0.17214 0.63104 1.0000
  Bi  Bi 0.80714 0.16924 0.00000 1.0000
  Bi  Bi 0.80714 0.16924 0.00000 1.0000
  Bi  Bi 0.80714 0.16924 0.00000 1.0000
  Bi  Bi 0.80714 0.16924 0.00000 1.0000
  Bi  Bi 0.84858 0.18996 0.36895 1.0000
  Bi  Bi 0.84858 0.18996 0.36895 1.0000
  Bi  Bi 0.83657 0.17214 0.63104 1.0000
  Bi  Bi 0.83657 0.17214 0.63104 1.0000
  Bi  Bi 0.83076 0.16924 0.00000 1.0000
  Bi  Bi 0.83076 0.16924 0.00000 1.0000
  Bi  Bi 0.83076 0.16924 0.00000 1.0000
  Bi  Bi 0.83076 0.16924 0.00000 1.0000
  Bi  Bi 0.87220 0.18996 0.36895 1.0000
  Bi  Bi 0.87220 0.18996 0.36895 1.0000
  Bi  Bi 0.86020 0.17214 0.63104 1.0000
  Bi  Bi 0.86020 0.17214 0.63104 1.0000
  Bi  Bi 0.85439 0.16924 0.00000 1.0000
  Bi  Bi 0.85439 0.16924 0.00000 1.0000
  Bi  Bi 0.85439 0.16924 0.00000 1.0000
  Bi  Bi 0.85439 0.16924 0.00000 1.0000
  Bi  Bi 0.89583 0.18996 0.36895 1.0000
  Bi  Bi 0.89583 0.18996 0.36895 1.0000
  Bi  Bi 0.88383 0.17214 0.63104 1.0000
  Bi  Bi 0.88383 0.17214 0.63104 1.0000
  Bi  Bi 0.87802 0.16924 0.00000 1.0000
  Bi  Bi 0.87802 0.16924 0.00000 1.0000
  Bi  Bi 0.87802 0.16924 0.00000 1.0000
  Bi  Bi 0.87802 0.16924 0.00000 1.0000
  Bi  Bi 0.91946 0.18996 0.36895 1.0000
  Bi  Bi 0.91946 0.18996 0.36895 1.0000
  Bi  Bi 0.90745 0.17214 0.63104 1.0000
  Bi  Bi 0.90745 0.17214 0.63104 1.0000
  Bi  Bi 0.90164 0.16924 0.00000 1.0000
  Bi  Bi 0.90164 0.16924 0.00000 1.0000
  Bi  Bi 0.90164 0.16924 0.00000 1.0000
  Bi  Bi 0.90164 0.16924 0.00000 1.0000
  Bi  Bi 0.94308 0.18996 0.36895 1.0000
  Bi  Bi 0.94308 0.18996 0.36895 1.0000
  Bi  Bi 0.93108 0.17214 0.63104 1.0000
  Bi  Bi 0.93108 0.17214 0.63104 1.0000
  Bi  Bi 0.92527 0.16924 0.00000 1.0000
  Bi  Bi 0.92527 0.16924 0.00000 1.0000
  Bi  Bi 0.92527 0.16924 0.00000 1.0000
  Bi  Bi 0.92527 0.16924 0.00000 1.0000
  Bi  Bi 0.96671 0.18996 0.36895 1.0000
  Bi  Bi 0.96671 0.18996 0.36895 1.0000
  Bi  Bi 0.95470 0.17214 0.63104 1.0000
  Bi  Bi 0.95470 0.17214 0.63104 1.0000
  Bi  Bi 0.94889 0.16924 0.00000 1.0000
  Bi  Bi 0.94889 0.16924 0.00000 1.0000
  Bi  Bi 0.94889 0.16924 0.00000 1.0000
  Bi  Bi 0.94889 0.16924 0.00000 1.0000
  Bi  Bi 0.04530 0.21358 0.36895 1.0000
  Bi  Bi 0.04530 0.21358 0.36895 1.0000
  Bi  Bi 0.03329 0.19577 0.63104 1.0000
  Bi  Bi 0.03329 0.19577 0.63104 1.0000
  Bi  Bi 0.02748 0.19286 0.00000 1.0000
  Bi  Bi 0.02748 0.19286 0.00000 1.0000
  Bi  Bi 0.02748 0.19286 0.00000 1.0000
  Bi  Bi 0.02748 0.19286 0.00000 1.0000
  Bi  Bi 0.06892 0.21358 0.36895 1.0000
  Bi  Bi 0.06892 0.21358 0.36895 1.0000
  Bi  Bi 0.05692 0.19577 0.63104 1.0000
  Bi  Bi 0.05692 0.19577 0.63104 1.0000
  Mo  Mo 0.05111 0.19286 0.00000 1.0000
  Bi  Bi 0.05111 0.19286 0.00000 1.0000
  Bi  Bi 0.05111 0.19286 0.00000 1.0000
  Mo  Mo 0.05111 0.19286 0.00000 1.0000
  Bi  Bi 0.09255 0.21358 0.36895 1.0000
  Bi  Bi 0.09255 0.21358 0.36895 1.0000
  Bi  Bi 0.08054 0.19577 0.63104 1.0000
  Bi  Bi 0.08054 0.19577 0.63104 1.0000
  Mo  Mo 0.07473 0.19286 0.00000 1.0000
  Mo  Mo 0.07473 0.19286 0.00000 1.0000
  Mo  Mo 0.07473 0.19286 0.00000 1.0000
  Si  Si 0.07473 0.19286 0.00000 1.0000
  Bi  Bi 0.11617 0.21358 0.36895 1.0000
  Bi  Bi 0.11617 0.21358 0.36895 1.0000
  Bi  Bi 0.10417 0.19577 0.63104 1.0000
  Bi  Bi 0.10417 0.19577 0.63104 1.0000
  Mo  Mo 0.09836 0.19286 0.00000 1.0000
  Mo  Mo 0.09836 0.19286 0.00000 1.0000
  Mo  Mo 0.09836 0.19286 0.00000 1.0000
  Si  Si 0.09836 0.19286 0.00000 1.0000
  Bi  Bi 0.13980 0.21358 0.36895 1.0000
  Bi  Bi 0.13980 0.21358 0.36895 1.0000
  Bi  Bi 0.12780 0.19577 0.63104 1.0000
  Bi  Bi 0.12780 0.19577 0.63104 1.0000
  Bi  Bi 0.12198 0.19286 0.00000 1.0000
  Bi  Bi 0.12198 0.19286 0.00000 1.0000
  Mo  Mo 0.12198 0.19286 0.00000 1.0000
  Si  Si 0.12198 0.19286 0.00000 1.0000
  Bi  Bi 0.16343 0.21358 0.36895 1.0000
  Bi  Bi 0.16343 0.21358 0.36895 1.0000
  Bi  Bi 0.15142 0.19577 0.63104 1.0000
  Bi  Bi 0.15142 0.19577 0.63104 1.0000
  Bi  Bi 0.14561 0.19286 0.00000 1.0000
  Bi  Bi 0.14561 0.19286 0.00000 1.0000
  Bi  Bi 0.14561 0.19286 0.00000 1.0000
  Mo  Mo 0.14561 0.19286 0.00000 1.0000
  Bi  Bi 0.18705 0.21358 0.36895 1.0000
  Bi  Bi 0.18705 0.21358 0.36895 1.0000
  Bi  Bi 0.17505 0.19577 0.63104 1.0000
  Bi  Bi 0.17505 0.19577 0.63104 1.0000
  Bi  Bi 0.16924 0.19286 0.00000 1.0000
  Bi  Bi 0.16924 0.19286 0.00000 1.0000
  Bi  Bi 0.16924 0.19286 0.00000 1.0000
  Bi  Bi 0.16924 0.19286 0.00000 1.0000
  Bi  Bi 0.21068 0.21358 0.36895 1.0000
  Bi  Bi 0.21068 0.21358 0.36895 1.0000
  Bi  Bi 0.19867 0.19577 0.63104 1.0000
  Bi  Bi 0.19867 0.19577 0.63104 1.0000
  Bi  Bi 0.19286 0.19286 0.00000 1.0000
  Bi  Bi 0.19286 0.19286 0.00000 1.0000
  Bi  Bi 0.19286 0.19286 0.00000 1.0000
  Bi  Bi 0.19286 0.19286 0.00000 1.0000
  Bi  Bi 0.23430 0.21358 0.36895 1.0000
  Bi  Bi 0.23430 0.21358 0.36895 1.0000
  Bi  Bi 0.22230 0.19577 0.63104 1.0000
  Bi  Bi 0.22230 0.19577 0.63104 1.0000
  Bi  Bi 0.21649 0.19286 0.00000 1.0000
  Bi  Bi 0.21649 0.19286 0.00000 1.0000
  Bi  Bi 0.21649 0.19286 0.00000 1.0000
  Bi  Bi 0.21649 0.19286 0.00000 1.0000
  Bi  Bi 0.25793 0.21358 0.36895 1.0000
  Bi  Bi 0.25793 0.21358 0.36895 1.0000
  Bi  Bi 0.24593 0.19577 0.63104 1.0000
  Bi  Bi 0.24593 0.19577 0.63104 1.0000
  Bi  Bi 0.24011 0.19286 0.00000 1.0000
  Bi  Bi 0.24011 0.19286 0.00000 1.0000
  Bi  Bi 0.24011 0.19286 0.00000 1.0000
  Bi  Bi 0.24011 0.19286 0.00000 1.0000
  Bi  Bi 0.28156 0.21358 0.36895 1.0000
  Bi  Bi 0.28156 0.21358 0.36895 1.0000
  Bi  Bi 0.26955 0.19577 0.63104 1.0000
  Bi  Bi 0.26955 0.19577 0.63104 1.0000
  Bi  Bi 0.26374 0.19286 0.00000 1.0000
  Bi  Bi 0.26374 0.19286 0.00000 1.0000
  Bi  Bi 0.26374 0.19286 0.00000 1.0000
  Bi  Bi 0.26374 0.19286 0.00000 1.0000
  Bi  Bi 0.30518 0.21358 0.36895 1.0000
  Bi  Bi 0.30518 0.21358 0.36895 1.0000
  Bi  Bi 0.29318 0.19577 0.63104 1.0000
  Bi  Bi 0.29318 0.19577 0.63104 1.0000
  Bi  Bi 0.28737 0.19286 0.00000 1.0000
  Bi  Bi 0.28737 0.19286 0.00000 1.0000
  Bi  Bi 0.28737 0.19286 0.00000 1.0000
  Bi  Bi 0.28737 0.19286 0.00000 1.0000
  Bi  Bi 0.32881 0.21358 0.36895 1.0000
  Bi  Bi 0.32881 0.21358 0.36895 1.0000
  Bi  Bi 0.31680 0.19577 0.63104 1.0000
  Bi  Bi 0.31680 0.19577 0.63104 1.0000
  Bi  Bi 0.31099 0.19286 0.00000 1.0000
  Bi  Bi 0.31099 0.19286 0.00000 1.0000
  Bi  Bi 0.31099 0.19286 0.00000 1.0000
  Bi  Bi 0.31099 0.19286 0.00000 1.0000
  Bi  Bi 0.35243 0.21358 0.36895 1.0000
  Bi  Bi 0.35243 0.21358 0.36895 1.0000
  Bi  Bi 0.34043 0.19577 0.63104 1.0000
  Bi  Bi 0.34043 0.19577 0.63104 1.0000
  Bi  Bi 0.33462 0.19286 0.00000 1.0000
  Bi  Bi 0.33462 0.19286 0.00000 1.0000
  Bi  Bi 0.33462 0.19286 0.00000 1.0000
  Bi  Bi 0.33462 0.19286 0.00000 1.0000
  Bi  Bi 0.37606 0.21358 0.36895 1.0000
  Bi  Bi 0.37606 0.21358 0.36895 1.0000
  Bi  Bi 0.36406 0.19577 0.63104 1.0000
  Bi  Bi 0.36406 0.19577 0.63104 1.0000
  Bi  Bi 0.35824 0.19286 0.00000 1.0000
  Bi  Bi 0.35824 0.19286 0.00000 1.0000
  Bi  Bi 0.35824 0.19286 0.00000 1.0000
  Bi  Bi 0.35824 0.19286 0.00000 1.0000
  Bi  Bi 0.39968 0.21358 0.36895 1.0000
  Bi  Bi 0.39968 0.21358 0.36895 1.0000
  Bi  Bi 0.38768 0.19577 0.63104 1.0000
  Bi  Bi 0.38768 0.19577 0.63104 1.0000
  Bi  Bi 0.38187 0.19286 0.00000 1.0000
  Bi  Bi 0.38187 0.19286 0.00000 1.0000
  Bi  Bi 0.38187 0.19286 0.00000 1.0000
  Bi  Bi 0.38187 0.19286 0.00000 1.0000
  Bi  Bi 0.42331 0.21358 0.36895 1.0000
  Bi  Bi 0.42331 0.21358 0.36895 1.0000
  Bi  Bi 0.41131 0.19577 0.63104 1.0000
  Bi  Bi 0.41131 0.19577 0.63104 1.0000
  Bi  Bi 0.40550 0.19286 0.00000 1.0000
  Bi  Bi 0.40550 0.19286 0.00000 1.0000
  Bi  Bi 0.40550 0.19286 0.00000 1.0000
  Bi  Bi 0.40550 0.19286 0.00000 1.0000
  Bi  Bi 0.44694 0.21358 0.36895 1.0000
  Bi  Bi 0.44694 0.21358 0.36895 1.0000
  Bi  Bi 0.43493 0.19577 0.63104 1.0000
  Bi  Bi 0.43493 0.19577 0.63104 1.0000
  Bi  Bi 0.42912 0.19286 0.00000 1.0000
  Bi  Bi 0.42912 0.19286 0.00000 1.0000
  Bi  Bi 0.42912 0.19286 0.00000 1.0000
  Bi  Bi 0.42912 0.19286 0.00000 1.0000
  Bi  Bi 0.47056 0.21358 0.36895 1.0000
  Bi  Bi 0.47056 0.21358 0.36895 1.0000
  Bi  Bi 0.45856 0.19577 0.63104 1.0000
  Bi  Bi 0.45856 0.19577 0.63104 1.0000
  Bi  Bi 0.45275 0.19286 0.00000 1.0000
  Bi  Bi 0.45275 0.19286 0.00000 1.0000
  Bi  Bi 0.45275 0.19286 0.00000 1.0000
  Bi  Bi 0.45275 0.19286 0.00000 1.0000
  Bi  Bi 0.49419 0.21358 0.36895 1.0000
  Bi  Bi 0.49419 0.21358 0.36895 1.0000
  Bi  Bi 0.48219 0.19577 0.63104 1.0000
  Bi  Bi 0.48219 0.19577 0.63104 1.0000
  Bi  Bi 0.47637 0.19286 0.00000 1.0000
  Bi  Bi 0.47637 0.19286 0.00000 1.0000
  Bi  Bi 0.47637 0.19286 0.00000 1.0000
  Bi  Bi 0.47637 0.19286 0.00000 1.0000
  Bi  Bi 0.51781 0.21358 0.36895 1.0000
  Bi  Bi 0.51781 0.21358 0.36895 1.0000
  Bi  Bi 0.50581 0.19577 0.63104 1.0000
  Bi  Bi 0.50581 0.19577 0.63104 1.0000
  Bi  Bi 0.50000 0.19286 0.00000 1.0000
  Bi  Bi 0.50000 0.19286 0.00000 1.0000
  Bi  Bi 0.50000 0.19286 0.00000 1.0000
  Bi  Bi 0.50000 0.19286 0.00000 1.0000
  Bi  Bi 0.54144 0.21358 0.36895 1.0000
  Bi  Bi 0.54144 0.21358 0.36895 1.0000
  Bi  Bi 0.52944 0.19577 0.63104 1.0000
  Bi  Bi 0.52944 0.19577 0.63104 1.0000
  Bi  Bi 0.52363 0.19286 0.00000 1.0000
  Bi  Bi 0.52363 0.19286 0.00000 1.0000
  Bi  Bi 0.52363 0.19286 0.00000 1.0000
  Bi  Bi 0.52363 0.19286 0.00000 1.0000
  Bi  Bi 0.56507 0.21358 0.36895 1.0000
  Bi  Bi 0.56507 0.21358 0.36895 1.0000
  Bi  Bi 0.55306 0.19577 0.63104 1.0000
  Bi  Bi 0.55306 0.19577 0.63104 1.0000
  Bi  Bi 0.54725 0.19286 0.00000 1.0000
  Bi  Bi 0.54725 0.19286 0.00000 1.0000
  Bi  Bi 0.54725 0.19286 0.00000 1.0000
  Bi  Bi 0.54725 0.19286 0.00000 1.0000
  Bi  Bi 0.58869 0.21358 0.36895 1.0000
  Bi  Bi 0.58869 0.21358 0.36895 1.0000
  Bi  Bi 0.57669 0.19577 0.63104 1.0000
  Bi  Bi 0.57669 0.19577 0.63104 1.0000
  Bi  Bi 0.57088 0.19286 0.00000 1.0000
  Bi  Bi 0.57088 0.19286 0.00000 1.0000
  Bi  Bi 0.57088 0.19286 0.00000 1.0000
  Bi  Bi 0.57088 0.19286 0.00000 1.0000
  Bi  Bi 0.61232 0.21358 0.36895 1.0000
  Bi  Bi 0.61232 0.21358 0.36895 1.0000
  Bi  Bi 0.60032 0.19577 0.63104 1.0000
  Bi  Bi 0.60032 0.19577 0.63104 1.0000
  Bi  Bi 0.59450 0.19286 0.00000 1.0000
  Bi  Bi 0.59450 0.19286 0.00000 1.0000
  Bi  Bi 0.59450 0.19286 0.00000 1.0000
  Bi  Bi 0.59450 0.19286 0.00000 1.0000
  Bi  Bi 0.63594 0.21358 0.36895 1.0000
  Bi  Bi 0.63594 0.21358 0.36895 1.0000
  Bi  Bi 0.62394 0.19577 0.63104 1.0000
  Bi  Bi 0.62394 0.19577 0.63104 1.0000
  Bi  Bi 0.61813 0.19286 0.00000 1.0000
  Bi  Bi 0.61813 0.19286 0.00000 1.0000
  Bi  Bi 0.61813 0.19286 0.00000 1.0000
  Bi  Bi 0.61813 0.19286 0.00000 1.0000
  Bi  Bi 0.65957 0.21358 0.36895 1.0000
  Bi  Bi 0.65957 0.21358 0.36895 1.0000
  Bi  Bi 0.64757 0.19577 0.63104 1.0000
  Bi  Bi 0.64757 0.19577 0.63104 1.0000
  Bi  Bi 0.64176 0.19286 0.00000 1.0000
  Bi  Bi 0.64176 0.19286 0.00000 1.0000
  Bi  Bi 0.64176 0.19286 0.00000 1.0000
  Bi  Bi 0.64176 0.19286 0.00000 1.0000
  Bi  Bi 0.68320 0.21358 0.36895 1.0000
  Bi  Bi 0.68320 0.21358 0.36895 1.0000
  Bi  Bi 0.67119 0.19577 0.63104 1.0000
  Bi  Bi 0.67119 0.19577 0.63104 1.0000
  Bi  Bi 0.66538 0.19286 0.00000 1.0000
  Bi  Bi 0.66538 0.19286 0.00000 1.0000
  Bi  Bi 0.66538 0.19286 0.00000 1.0000
  Bi  Bi 0.66538 0.19286 0.00000 1.0000
  Bi  Bi 0.70682 0.21358 0.36895 1.0000
  Bi  Bi 0.70682 0.21358 0.36895 1.0000
  Bi  Bi 0.69482 0.19577 0.63104 1.0000
  Bi  Bi 0.69482 0.19577 0.63104 1.0000
  Bi  Bi 0.68901 0.19286 0.00000 1.0000
  Bi  Bi 0.68901 0.19286 0.00000 1.0000
  Bi  Bi 0.68901 0.19286 0.00000 1.0000
  Bi  Bi 0.68901 0.19286 0.00000 1.0000
  Bi  Bi 0.73045 0.21358 0.36895 1.0000
  Bi  Bi 0.73045 0.21358 0.36895 1.0000
  Bi  Bi 0.71844 0.19577 0.63104 1.0000
  Bi  Bi 0.71844 0.19577 0.63104 1.0000
  Bi  Bi 0.71263 0.19286 0.00000 1.0000
  Bi  Bi 0.71263 0.19286 0.00000 1.0000
  Bi  Bi 0.71263 0.19286 0.00000 1.0000
  Bi  Bi 0.71263 0.19286 0.00000 1.0000
  Bi  Bi 0.75407 0.21358 0.36895 1.0000
  Bi  Bi 0.75407 0.21358 0.36895 1.0000
  Bi  Bi 0.74207 0.19577 0.63104 1.0000
  Bi  Bi 0.74207 0.19577 0.63104 1.0000
  Bi  Bi 0.73626 0.19286 0.00000 1.0000
  Bi  Bi 0.73626 0.19286 0.00000 1.0000
  Bi  Bi 0.73626 0.19286 0.00000 1.0000
  Bi  Bi 0.73626 0.19286 0.00000 1.0000
  Bi  Bi 0.77770 0.21358 0.36895 1.0000
  Bi  Bi 0.77770 0.21358 0.36895 1.0000
  Bi  Bi 0.76570 0.19577 0.63104 1.0000
  Bi  Bi 0.76570 0.19577 0.63104 1.0000
  Bi  Bi 0.75989 0.19286 0.00000 1.0000
  Bi  Bi 0.75989 0.19286 0.00000 1.0000
  Bi  Bi 0.75989 0.19286 0.00000 1.0000
  Bi  Bi 0.75989 0.19286 0.00000 1.0000
  Bi  Bi 0.80133 0.21358 0.36895 1.0000
  Bi  Bi 0.80133 0.21358 0.36895 1.0000
  Bi  Bi 0.78932 0.19577 0.63104 1.0000
  Bi  Bi 0.78932 0.19577 0.63104 1.0000
  Bi  Bi 0.78351 0.19286 0.00000 1.0000
  Bi  Bi 0.78351 0.19286 0.00000 1.0000
  Bi  Bi 0.78351 0.19286 0.00000 1.0000
  Bi  Bi 0.78351 0.19286 0.00000 1.0000
  Bi  Bi 0.82495 0.21358 0.36895 1.0000
  Bi  Bi 0.82495 0.21358 0.36895 1.0000
  Bi  Bi 0.81295 0.19577 0.63104 1.0000
  Bi  Bi 0.81295 0.19577 0.63104 1.0000
  Bi  Bi 0.80714 0.19286 0.00000 1.0000
  Bi  Bi 0.80714 0.19286 0.00000 1.0000
  Bi  Bi 0.80714 0.19286 0.00000 1.0000
  Bi  Bi 0.80714 0.19286 0.00000 1.0000
  Bi  Bi 0.84858 0.21358 0.36895 1.0000
  Bi  Bi 0.84858 0.21358 0.36895 1.0000
  Bi  Bi 0.83657 0.19577 0.63104 1.0000
  Bi  Bi 0.83657 0.19577 0.63104 1.0000
  Bi  Bi 0.83076 0.19286 0.00000 1.0000
  Bi  Bi 0.83076 0.19286 0.00000 1.0000
  Bi  Bi 0.83076 0.19286 0.00000 1.0000
  Bi  Bi 0.83076 0.19286 0.00000 1.0000
  Bi  Bi 0.87220 0.21358 0.36895 1.0000
  Bi  Bi 0.87220 0.21358 0.36895 1.0000
  Bi  Bi 0.86020 0.19577 0.63104 1.0000
  Bi  Bi 0.86020 0.19577 0.63104 1.0000
  Bi  Bi 0.85439 0.19286 0.00000 1.0000
  Bi  Bi 0.85439 0.19286 0.00000 1.0000
  Bi  Bi 0.85439 0.19286 0.00000 1.0000
  Bi  Bi 0.85439 0.19286 0.00000 1.0000
  Bi  Bi 0.89583 0.21358 0.36895 1.0000
  Bi  Bi 0.89583 0.21358 0.36895 1.0000
  Bi  Bi 0.88383 0.19577 0.63104 1.0000
  Bi  Bi 0.88383 0.19577 0.63104 1.0000
  Bi  Bi 0.87802 0.19286 0.00000 1.0000
  Bi  Bi 0.87802 0.19286 0.00000 1.0000
  Bi  Bi 0.87802 0.19286 0.00000 1.0000
  Bi  Bi 0.87802 0.19286 0.00000 1.0000
  Bi  Bi 0.91946 0.21358 0.36895 1.0000
  Bi  Bi 0.91946 0.21358 0.36895 1.0000
  Bi  Bi 0.90745 0.19577 0.63104 1.0000
  Bi  Bi 0.90745 0.19577 0.63104 1.0000
  Bi  Bi 0.90164 0.19286 0.00000 1.0000
  Bi  Bi 0.90164 0.19286 0.00000 1.0000
  Bi  Bi 0.90164 0.19286 0.00000 1.0000
  Bi  Bi 0.90164 0.19286 0.00000 1.0000
  Bi  Bi 0.94308 0.21358 0.36895 1.0000
  Bi  Bi 0.94308 0.21358 0.36895 1.0000
  Bi  Bi 0.93108 0.19577 0.63104 1.0000
  Bi  Bi 0.93108 0.19577 0.63104 1.0000
  Bi  Bi 0.92527 0.19286 0.00000 1.0000
  Bi  Bi 0.92527 0.19286 0.00000 1.0000
  Bi  Bi 0.92527 0.19286 0.00000 1.0000
  Bi  Bi 0.92527 0.19286 0.00000 1.0000
  Bi  Bi 0.96671 0.21358 0.36895 1.0000
  Bi  Bi 0.96671 0.21358 0.36895 1.0000
  Bi  Bi 0.95470 0.19577 0.63104 1.0000
  Bi  Bi 0.95470 0.19577 0.63104 1.0000
  Bi  Bi 0.94889 0.19286 0.00000 1.0000
  Bi  Bi 0.94889 0.19286 0.00000 1.0000
  Bi  Bi 0.94889 0.19286 0.00000 1.0000
  Bi  Bi 0.94889 0.19286 0.00000 1.0000
  Bi  Bi 0.04530 0.23721 0.36895 1.0000
  Bi  Bi 0.04530 0.23721 0.36895 1.0000
  Bi  Bi 0.03329 0.21939 0.63104 1.0000
  Bi  Bi 0.03329 0.21939 0.63104 1.0000
  Bi  Bi 0.02748 0.21649 0.00000 1.0000
  Bi  Bi 0.02748 0.21649 0.00000 1.0000
  Bi  Bi 0.02748 0.21649 0.00000 1.0000
  Bi  Bi 0.02748 0.21649 0.00000 1.0000
  Bi  Bi 0.06892 0.23721 0.36895 1.0000
  Bi  Bi 0.06892 0.23721 0.36895 1.0000
  Bi  Bi 0.05692 0.21939 0.63104 1.0000
  Bi  Bi 0.05692 0.21939 0.63104 1.0000
  Mo  Mo 0.05111 0.21649 0.00000 1.0000
  Bi  Bi 0.05111 0.21649 0.00000 1.0000
  Bi  Bi 0.05111 0.21649 0.00000 1.0000
  Mo  Mo 0.05111 0.21649 0.00000 1.0000
  Bi  Bi 0.09255 0.23721 0.36895 1.0000
  Bi  Bi 0.09255 0.23721 0.36895 1.0000
  Bi  Bi 0.08054 0.21939 0.63104 1.0000
  Bi  Bi 0.08054 0.21939 0.63104 1.0000
  Mo  Mo 0.07473 0.21649 0.00000 1.0000
  Bi  Bi 0.07473 0.21649 0.00000 1.0000
  Mo  Mo 0.07473 0.21649 0.00000 1.0000
  Si  Si 0.07473 0.21649 0.00000 1.0000
  Bi  Bi 0.11617 0.23721 0.36895 1.0000
  Bi  Bi 0.11617 0.23721 0.36895 1.0000
  Bi  Bi 0.10417 0.21939 0.63104 1.0000
  Bi  Bi 0.10417 0.21939 0.63104 1.0000
  Bi  Bi 0.09836 0.21649 0.00000 1.0000
  Bi  Bi 0.09836 0.21649 0.00000 1.0000
  Mo  Mo 0.09836 0.21649 0.00000 1.0000
  Mo  Mo 0.09836 0.21649 0.00000 1.0000
  Bi  Bi 0.13980 0.23721 0.36895 1.0000
  Bi  Bi 0.13980 0.23721 0.36895 1.0000
  Bi  Bi 0.12780 0.21939 0.63104 1.0000
  Bi  Bi 0.12780 0.21939 0.63104 1.0000
  Bi  Bi 0.12198 0.21649 0.00000 1.0000
  Bi  Bi 0.12198 0.21649 0.00000 1.0000
  Bi  Bi 0.12198 0.21649 0.00000 1.0000
  Mo  Mo 0.12198 0.21649 0.00000 1.0000
  Bi  Bi 0.16343 0.23721 0.36895 1.0000
  Bi  Bi 0.16343 0.23721 0.36895 1.0000
  Bi  Bi 0.15142 0.21939 0.63104 1.0000
  Bi  Bi 0.15142 0.21939 0.63104 1.0000
  Bi  Bi 0.14561 0.21649 0.00000 1.0000
  Bi  Bi 0.14561 0.21649 0.00000 1.0000
  Bi  Bi 0.14561 0.21649 0.00000 1.0000
  Bi  Bi 0.14561 0.21649 0.00000 1.0000
  Bi  Bi 0.18705 0.23721 0.36895 1.0000
  Bi  Bi 0.18705 0.23721 0.36895 1.0000
  Bi  Bi 0.17505 0.21939 0.63104 1.0000
  Bi  Bi 0.17505 0.21939 0.63104 1.0000
  Bi  Bi 0.16924 0.21649 0.00000 1.0000
  Bi  Bi 0.16924 0.21649 0.00000 1.0000
  Bi  Bi 0.16924 0.21649 0.00000 1.0000
  Bi  Bi 0.16924 0.21649 0.00000 1.0000
  Bi  Bi 0.21068 0.23721 0.36895 1.0000
  Bi  Bi 0.21068 0.23721 0.36895 1.0000
  Bi  Bi 0.19867 0.21939 0.63104 1.0000
  Bi  Bi 0.19867 0.21939 0.63104 1.0000
  Bi  Bi 0.19286 0.21649 0.00000 1.0000
  Bi  Bi 0.19286 0.21649 0.00000 1.0000
  Bi  Bi 0.19286 0.21649 0.00000 1.0000
  Bi  Bi 0.19286 0.21649 0.00000 1.0000
  Bi  Bi 0.23430 0.23721 0.36895 1.0000
  Bi  Bi 0.23430 0.23721 0.36895 1.0000
  Bi  Bi 0.22230 0.21939 0.63104 1.0000
  Bi  Bi 0.22230 0.21939 0.63104 1.0000
  Bi  Bi 0.21649 0.21649 0.00000 1.0000
  Bi  Bi 0.21649 0.21649 0.00000 1.0000
  Bi  Bi 0.21649 0.21649 0.00000 1.0000
  Bi  Bi 0.21649 0.21649 0.00000 1.0000
  Bi  Bi 0.25793 0.23721 0.36895 1.0000
  Bi  Bi 0.25793 0.23721 0.36895 1.0000
  Bi  Bi 0.24593 0.21939 0.63104 1.0000
  Bi  Bi 0.24593 0.21939 0.63104 1.0000
  Bi  Bi 0.24011 0.21649 0.00000 1.0000
  Bi  Bi 0.24011 0.21649 0.00000 1.0000
  Bi  Bi 0.24011 0.21649 0.00000 1.0000
  Bi  Bi 0.24011 0.21649 0.00000 1.0000
  Bi  Bi 0.28156 0.23721 0.36895 1.0000
  Bi  Bi 0.28156 0.23721 0.36895 1.0000
  Bi  Bi 0.26955 0.21939 0.63104 1.0000
  Bi  Bi 0.26955 0.21939 0.63104 1.0000
  Bi  Bi 0.26374 0.21649 0.00000 1.0000
  Bi  Bi 0.26374 0.21649 0.00000 1.0000
  Bi  Bi 0.26374 0.21649 0.00000 1.0000
  Bi  Bi 0.26374 0.21649 0.00000 1.0000
  Bi  Bi 0.30518 0.23721 0.36895 1.0000
  Bi  Bi 0.30518 0.23721 0.36895 1.0000
  Bi  Bi 0.29318 0.21939 0.63104 1.0000
  Bi  Bi 0.29318 0.21939 0.63104 1.0000
  Bi  Bi 0.28737 0.21649 0.00000 1.0000
  Bi  Bi 0.28737 0.21649 0.00000 1.0000
  Bi  Bi 0.28737 0.21649 0.00000 1.0000
  Bi  Bi 0.28737 0.21649 0.00000 1.0000
  Bi  Bi 0.32881 0.23721 0.36895 1.0000
  Bi  Bi 0.32881 0.23721 0.36895 1.0000
  Bi  Bi 0.31680 0.21939 0.63104 1.0000
  Bi  Bi 0.31680 0.21939 0.63104 1.0000
  Bi  Bi 0.31099 0.21649 0.00000 1.0000
  Bi  Bi 0.31099 0.21649 0.00000 1.0000
  Bi  Bi 0.31099 0.21649 0.00000 1.0000
  Bi  Bi 0.31099 0.21649 0.00000 1.0000
  Bi  Bi 0.35243 0.23721 0.36895 1.0000
  Bi  Bi 0.35243 0.23721 0.36895 1.0000
  Bi  Bi 0.34043 0.21939 0.63104 1.0000
  Bi  Bi 0.34043 0.21939 0.63104 1.0000
  Bi  Bi 0.33462 0.21649 0.00000 1.0000
  Bi  Bi 0.33462 0.21649 0.00000 1.0000
  Bi  Bi 0.33462 0.21649 0.00000 1.0000
  Bi  Bi 0.33462 0.21649 0.00000 1.0000
  Bi  Bi 0.37606 0.23721 0.36895 1.0000
  Bi  Bi 0.37606 0.23721 0.36895 1.0000
  Bi  Bi 0.36406 0.21939 0.63104 1.0000
  Bi  Bi 0.36406 0.21939 0.63104 1.0000
  Bi  Bi 0.35824 0.21649 0.00000 1.0000
  Bi  Bi 0.35824 0.21649 0.00000 1.0000
  Bi  Bi 0.35824 0.21649 0.00000 1.0000
  Bi  Bi 0.35824 0.21649 0.00000 1.0000
  Bi  Bi 0.39968 0.23721 0.36895 1.0000
  Bi  Bi 0.39968 0.23721 0.36895 1.0000
  Bi  Bi 0.38768 0.21939 0.63104 1.0000
  Bi  Bi 0.38768 0.21939 0.63104 1.0000
  Bi  Bi 0.38187 0.21649 0.00000 1.0000
  Bi  Bi 0.38187 0.21649 0.00000 1.0000
  Bi  Bi 0.38187 0.21649 0.00000 1.0000
  Bi  Bi 0.38187 0.21649 0.00000 1.0000
  Bi  Bi 0.42331 0.23721 0.36895 1.0000
  Bi  Bi 0.42331 0.23721 0.36895 1.0000
  Bi  Bi 0.41131 0.21939 0.63104 1.0000
  Bi  Bi 0.41131 0.21939 0.63104 1.0000
  Bi  Bi 0.40550 0.21649 0.00000 1.0000
  Bi  Bi 0.40550 0.21649 0.00000 1.0000
  Bi  Bi 0.40550 0.21649 0.00000 1.0000
  Bi  Bi 0.40550 0.21649 0.00000 1.0000
  Bi  Bi 0.44694 0.23721 0.36895 1.0000
  Bi  Bi 0.44694 0.23721 0.36895 1.0000
  Bi  Bi 0.43493 0.21939 0.63104 1.0000
  Bi  Bi 0.43493 0.21939 0.63104 1.0000
  Bi  Bi 0.42912 0.21649 0.00000 1.0000
  Bi  Bi 0.42912 0.21649 0.00000 1.0000
  Bi  Bi 0.42912 0.21649 0.00000 1.0000
  Bi  Bi 0.42912 0.21649 0.00000 1.0000
  Bi  Bi 0.47056 0.23721 0.36895 1.0000
  Bi  Bi 0.47056 0.23721 0.36895 1.0000
  Bi  Bi 0.45856 0.21939 0.63104 1.0000
  Bi  Bi 0.45856 0.21939 0.63104 1.0000
  Bi  Bi 0.45275 0.21649 0.00000 1.0000
  Bi  Bi 0.45275 0.21649 0.00000 1.0000
  Bi  Bi 0.45275 0.21649 0.00000 1.0000
  Bi  Bi 0.45275 0.21649 0.00000 1.0000
  Bi  Bi 0.49419 0.23721 0.36895 1.0000
  Bi  Bi 0.49419 0.23721 0.36895 1.0000
  Bi  Bi 0.48219 0.21939 0.63104 1.0000
  Bi  Bi 0.48219 0.21939 0.63104 1.0000
  Bi  Bi 0.47637 0.21649 0.00000 1.0000
  Bi  Bi 0.47637 0.21649 0.00000 1.0000
  Bi  Bi 0.47637 0.21649 0.00000 1.0000
  Bi  Bi 0.47637 0.21649 0.00000 1.0000
  Bi  Bi 0.51781 0.23721 0.36895 1.0000
  Bi  Bi 0.51781 0.23721 0.36895 1.0000
  Bi  Bi 0.50581 0.21939 0.63104 1.0000
  Bi  Bi 0.50581 0.21939 0.63104 1.0000
  Bi  Bi 0.50000 0.21649 0.00000 1.0000
  Bi  Bi 0.50000 0.21649 0.00000 1.0000
  Bi  Bi 0.50000 0.21649 0.00000 1.0000
  Bi  Bi 0.50000 0.21649 0.00000 1.0000
  Bi  Bi 0.54144 0.23721 0.36895 1.0000
  Bi  Bi 0.54144 0.23721 0.36895 1.0000
  Bi  Bi 0.52944 0.21939 0.63104 1.0000
  Bi  Bi 0.52944 0.21939 0.63104 1.0000
  Bi  Bi 0.52363 0.21649 0.00000 1.0000
  Bi  Bi 0.52363 0.21649 0.00000 1.0000
  Bi  Bi 0.52363 0.21649 0.00000 1.0000
  Bi  Bi 0.52363 0.21649 0.00000 1.0000
  Bi  Bi 0.56507 0.23721 0.36895 1.0000
  Bi  Bi 0.56507 0.23721 0.36895 1.0000
  Bi  Bi 0.55306 0.21939 0.63104 1.0000
  Bi  Bi 0.55306 0.21939 0.63104 1.0000
  Bi  Bi 0.54725 0.21649 0.00000 1.0000
  Bi  Bi 0.54725 0.21649 0.00000 1.0000
  Bi  Bi 0.54725 0.21649 0.00000 1.0000
  Bi  Bi 0.54725 0.21649 0.00000 1.0000
  Bi  Bi 0.58869 0.23721 0.36895 1.0000
  Bi  Bi 0.58869 0.23721 0.36895 1.0000
  Bi  Bi 0.57669 0.21939 0.63104 1.0000
  Bi  Bi 0.57669 0.21939 0.63104 1.0000
  Bi  Bi 0.57088 0.21649 0.00000 1.0000
  Bi  Bi 0.57088 0.21649 0.00000 1.0000
  Bi  Bi 0.57088 0.21649 0.00000 1.0000
  Bi  Bi 0.57088 0.21649 0.00000 1.0000
  Bi  Bi 0.61232 0.23721 0.36895 1.0000
  Bi  Bi 0.61232 0.23721 0.36895 1.0000
  Bi  Bi 0.60032 0.21939 0.63104 1.0000
  Bi  Bi 0.60032 0.21939 0.63104 1.0000
  Bi  Bi 0.59450 0.21649 0.00000 1.0000
  Bi  Bi 0.59450 0.21649 0.00000 1.0000
  Bi  Bi 0.59450 0.21649 0.00000 1.0000
  Bi  Bi 0.59450 0.21649 0.00000 1.0000
  Bi  Bi 0.63594 0.23721 0.36895 1.0000
  Bi  Bi 0.63594 0.23721 0.36895 1.0000
  Bi  Bi 0.62394 0.21939 0.63104 1.0000
  Bi  Bi 0.62394 0.21939 0.63104 1.0000
  Bi  Bi 0.61813 0.21649 0.00000 1.0000
  Bi  Bi 0.61813 0.21649 0.00000 1.0000
  Bi  Bi 0.61813 0.21649 0.00000 1.0000
  Bi  Bi 0.61813 0.21649 0.00000 1.0000
  Bi  Bi 0.65957 0.23721 0.36895 1.0000
  Bi  Bi 0.65957 0.23721 0.36895 1.0000
  Bi  Bi 0.64757 0.21939 0.63104 1.0000
  Bi  Bi 0.64757 0.21939 0.63104 1.0000
  Bi  Bi 0.64176 0.21649 0.00000 1.0000
  Bi  Bi 0.64176 0.21649 0.00000 1.0000
  Bi  Bi 0.64176 0.21649 0.00000 1.0000
  Bi  Bi 0.64176 0.21649 0.00000 1.0000
  Bi  Bi 0.68320 0.23721 0.36895 1.0000
  Bi  Bi 0.68320 0.23721 0.36895 1.0000
  Bi  Bi 0.67119 0.21939 0.63104 1.0000
  Bi  Bi 0.67119 0.21939 0.63104 1.0000
  Bi  Bi 0.66538 0.21649 0.00000 1.0000
  Bi  Bi 0.66538 0.21649 0.00000 1.0000
  Bi  Bi 0.66538 0.21649 0.00000 1.0000
  Bi  Bi 0.66538 0.21649 0.00000 1.0000
  Bi  Bi 0.70682 0.23721 0.36895 1.0000
  Bi  Bi 0.70682 0.23721 0.36895 1.0000
  Bi  Bi 0.69482 0.21939 0.63104 1.0000
  Bi  Bi 0.69482 0.21939 0.63104 1.0000
  Bi  Bi 0.68901 0.21649 0.00000 1.0000
  Bi  Bi 0.68901 0.21649 0.00000 1.0000
  Bi  Bi 0.68901 0.21649 0.00000 1.0000
  Bi  Bi 0.68901 0.21649 0.00000 1.0000
  Bi  Bi 0.73045 0.23721 0.36895 1.0000
  Bi  Bi 0.73045 0.23721 0.36895 1.0000
  Bi  Bi 0.71844 0.21939 0.63104 1.0000
  Bi  Bi 0.71844 0.21939 0.63104 1.0000
  Bi  Bi 0.71263 0.21649 0.00000 1.0000
  Bi  Bi 0.71263 0.21649 0.00000 1.0000
  Bi  Bi 0.71263 0.21649 0.00000 1.0000
  Bi  Bi 0.71263 0.21649 0.00000 1.0000
  Bi  Bi 0.75407 0.23721 0.36895 1.0000
  Bi  Bi 0.75407 0.23721 0.36895 1.0000
  Bi  Bi 0.74207 0.21939 0.63104 1.0000
  Bi  Bi 0.74207 0.21939 0.63104 1.0000
  Bi  Bi 0.73626 0.21649 0.00000 1.0000
  Bi  Bi 0.73626 0.21649 0.00000 1.0000
  Bi  Bi 0.73626 0.21649 0.00000 1.0000
  Bi  Bi 0.73626 0.21649 0.00000 1.0000
  Bi  Bi 0.77770 0.23721 0.36895 1.0000
  Bi  Bi 0.77770 0.23721 0.36895 1.0000
  Bi  Bi 0.76570 0.21939 0.63104 1.0000
  Bi  Bi 0.76570 0.21939 0.63104 1.0000
  Bi  Bi 0.75989 0.21649 0.00000 1.0000
  Bi  Bi 0.75989 0.21649 0.00000 1.0000
  Bi  Bi 0.75989 0.21649 0.00000 1.0000
  Bi  Bi 0.75989 0.21649 0.00000 1.0000
  Bi  Bi 0.80133 0.23721 0.36895 1.0000
  Bi  Bi 0.80133 0.23721 0.36895 1.0000
  Bi  Bi 0.78932 0.21939 0.63104 1.0000
  Bi  Bi 0.78932 0.21939 0.63104 1.0000
  Bi  Bi 0.78351 0.21649 0.00000 1.0000
  Bi  Bi 0.78351 0.21649 0.00000 1.0000
  Bi  Bi 0.78351 0.21649 0.00000 1.0000
  Bi  Bi 0.78351 0.21649 0.00000 1.0000
  Bi  Bi 0.82495 0.23721 0.36895 1.0000
  Bi  Bi 0.82495 0.23721 0.36895 1.0000
  Bi  Bi 0.81295 0.21939 0.63104 1.0000
  Bi  Bi 0.81295 0.21939 0.63104 1.0000
  Bi  Bi 0.80714 0.21649 0.00000 1.0000
  Bi  Bi 0.80714 0.21649 0.00000 1.0000
  Bi  Bi 0.80714 0.21649 0.00000 1.0000
  Bi  Bi 0.80714 0.21649 0.00000 1.0000
  Bi  Bi 0.84858 0.23721 0.36895 1.0000
  Bi  Bi 0.84858 0.23721 0.36895 1.0000
  Bi  Bi 0.83657 0.21939 0.63104 1.0000
  Bi  Bi 0.83657 0.21939 0.63104 1.0000
  Bi  Bi 0.83076 0.21649 0.00000 1.0000
  Bi  Bi 0.83076 0.21649 0.00000 1.0000
  Bi  Bi 0.83076 0.21649 0.00000 1.0000
  Bi  Bi 0.83076 0.21649 0.00000 1.0000
  Bi  Bi 0.87220 0.23721 0.36895 1.0000
  Bi  Bi 0.87220 0.23721 0.36895 1.0000
  Bi  Bi 0.86020 0.21939 0.63104 1.0000
  Bi  Bi 0.86020 0.21939 0.63104 1.0000
  Bi  Bi 0.85439 0.21649 0.00000 1.0000
  Bi  Bi 0.85439 0.21649 0.00000 1.0000
  Bi  Bi 0.85439 0.21649 0.00000 1.0000
  Bi  Bi 0.85439 0.21649 0.00000 1.0000
  Bi  Bi 0.89583 0.23721 0.36895 1.0000
  Bi  Bi 0.89583 0.23721 0.36895 1.0000
  Bi  Bi 0.88383 0.21939 0.63104 1.0000
  Bi  Bi 0.88383 0.21939 0.63104 1.0000
  Bi  Bi 0.87802 0.21649 0.00000 1.0000
  Bi  Bi 0.87802 0.21649 0.00000 1.0000
  Bi  Bi 0.87802 0.21649 0.00000 1.0000
  Bi  Bi 0.87802 0.21649 0.00000 1.0000
  Bi  Bi 0.91946 0.23721 0.36895 1.0000
  Bi  Bi 0.91946 0.23721 0.36895 1.0000
  Bi  Bi 0.90745 0.21939 0.63104 1.0000
  Bi  Bi 0.90745 0.21939 0.63104 1.0000
  Bi  Bi 0.90164 0.21649 0.00000 1.0000
  Bi  Bi 0.90164 0.21649 0.00000 1.0000
  Bi  Bi 0.90164 0.21649 0.00000 1.0000
  Bi  Bi 0.90164 0.21649 0.00000 1.0000
  Bi  Bi 0.94308 0.23721 0.36895 1.0000
  Bi  Bi 0.94308 0.23721 0.36895 1.0000
  Bi  Bi 0.93108 0.21939 0.63104 1.0000
  Bi  Bi 0.93108 0.21939 0.63104 1.0000
  Bi  Bi 0.92527 0.21649 0.00000 1.0000
  Bi  Bi 0.92527 0.21649 0.00000 1.0000
  Bi  Bi 0.92527 0.21649 0.00000 1.0000
  Bi  Bi 0.92527 0.21649 0.00000 1.0000
  Bi  Bi 0.96671 0.23721 0.36895 1.0000
  Bi  Bi 0.96671 0.23721 0.36895 1.0000
  Bi  Bi 0.95470 0.21939 0.63104 1.0000
  Bi  Bi 0.95470 0.21939 0.63104 1.0000
  Bi  Bi 0.94889 0.21649 0.00000 1.0000
  Bi  Bi 0.94889 0.21649 0.00000 1.0000
  Bi  Bi 0.94889 0.21649 0.00000 1.0000
  Bi  Bi 0.94889 0.21649 0.00000 1.0000
  Bi  Bi 0.04530 0.26083 0.36895 1.0000
  Bi  Bi 0.04530 0.26083 0.36895 1.0000
  Bi  Bi 0.03329 0.24302 0.63104 1.0000
  Bi  Bi 0.03329 0.24302 0.63104 1.0000
  Bi  Bi 0.02748 0.24011 0.00000 1.0000
  Bi  Bi 0.02748 0.24011 0.00000 1.0000
  Bi  Bi 0.02748 0.24011 0.00000 1.0000
  Bi  Bi 0.02748 0.24011 0.00000 1.0000
  Bi  Bi 0.06892 0.26083 0.36895 1.0000
  Bi  Bi 0.06892 0.26083 0.36895 1.0000
  Bi  Bi 0.05692 0.24302 0.63104 1.0000
  Bi  Bi 0.05692 0.24302 0.63104 1.0000
  Bi  Bi 0.05111 0.24011 0.00000 1.0000
  Bi  Bi 0.05111 0.24011 0.00000 1.0000
  Bi  Bi 0.05111 0.24011 0.00000 1.0000
  Mo  Mo 0.05111 0.24011 0.00000 1.0000
  Bi  Bi 0.09255 0.26083 0.36895 1.0000
  Bi  Bi 0.09255 0.26083 0.36895 1.0000
  Bi  Bi 0.08054 0.24302 0.63104 1.0000
  Bi  Bi 0.08054 0.24302 0.63104 1.0000
  Bi  Bi 0.07473 0.24011 0.00000 1.0000
  Bi  Bi 0.07473 0.24011 0.00000 1.0000
  Bi  Bi 0.07473 0.24011 0.00000 1.0000
  Mo  Mo 0.07473 0.24011 0.00000 1.0000
  Bi  Bi 0.11617 0.26083 0.36895 1.0000
  Bi  Bi 0.11617 0.26083 0.36895 1.0000
  Bi  Bi 0.10417 0.24302 0.63104 1.0000
  Bi  Bi 0.10417 0.24302 0.63104 1.0000
  Bi  Bi 0.09836 0.24011 0.00000 1.0000
  Bi  Bi 0.09836 0.24011 0.00000 1.0000
  Bi  Bi 0.09836 0.24011 0.00000 1.0000
  Mo  Mo 0.09836 0.24011 0.00000 1.0000
  Bi  Bi 0.13980 0.26083 0.36895 1.0000
  Bi  Bi 0.13980 0.26083 0.36895 1.0000
  Bi  Bi 0.12780 0.24302 0.63104 1.0000
  Bi  Bi 0.12780 0.24302 0.63104 1.0000
  Bi  Bi 0.12198 0.24011 0.00000 1.0000
  Bi  Bi 0.12198 0.24011 0.00000 1.0000
  Bi  Bi 0.12198 0.24011 0.00000 1.0000
  Mo  Mo 0.12198 0.24011 0.00000 1.0000
  Bi  Bi 0.16343 0.26083 0.36895 1.0000
  Bi  Bi 0.16343 0.26083 0.36895 1.0000
  Bi  Bi 0.15142 0.24302 0.63104 1.0000
  Bi  Bi 0.15142 0.24302 0.63104 1.0000
  Bi  Bi 0.14561 0.24011 0.00000 1.0000
  Bi  Bi 0.14561 0.24011 0.00000 1.0000
  Bi  Bi 0.14561 0.24011 0.00000 1.0000
  Bi  Bi 0.14561 0.24011 0.00000 1.0000
  Bi  Bi 0.18705 0.26083 0.36895 1.0000
  Bi  Bi 0.18705 0.26083 0.36895 1.0000
  Bi  Bi 0.17505 0.24302 0.63104 1.0000
  Bi  Bi 0.17505 0.24302 0.63104 1.0000
  Bi  Bi 0.16924 0.24011 0.00000 1.0000
  Bi  Bi 0.16924 0.24011 0.00000 1.0000
  Bi  Bi 0.16924 0.24011 0.00000 1.0000
  Bi  Bi 0.16924 0.24011 0.00000 1.0000
  Bi  Bi 0.21068 0.26083 0.36895 1.0000
  Bi  Bi 0.21068 0.26083 0.36895 1.0000
  Bi  Bi 0.19867 0.24302 0.63104 1.0000
  Bi  Bi 0.19867 0.24302 0.63104 1.0000
  Bi  Bi 0.19286 0.24011 0.00000 1.0000
  Bi  Bi 0.19286 0.24011 0.00000 1.0000
  Bi  Bi 0.19286 0.24011 0.00000 1.0000
  Bi  Bi 0.19286 0.24011 0.00000 1.0000
  Bi  Bi 0.23430 0.26083 0.36895 1.0000
  Bi  Bi 0.23430 0.26083 0.36895 1.0000
  Bi  Bi 0.22230 0.24302 0.63104 1.0000
  Bi  Bi 0.22230 0.24302 0.63104 1.0000
  Bi  Bi 0.21649 0.24011 0.00000 1.0000
  Bi  Bi 0.21649 0.24011 0.00000 1.0000
  Bi  Bi 0.21649 0.24011 0.00000 1.0000
  Bi  Bi 0.21649 0.24011 0.00000 1.0000
  Bi  Bi 0.25793 0.26083 0.36895 1.0000
  Bi  Bi 0.25793 0.26083 0.36895 1.0000
  Bi  Bi 0.24593 0.24302 0.63104 1.0000
  Bi  Bi 0.24593 0.24302 0.63104 1.0000
  Bi  Bi 0.24011 0.24011 0.00000 1.0000
  Bi  Bi 0.24011 0.24011 0.00000 1.0000
  Bi  Bi 0.24011 0.24011 0.00000 1.0000
  Bi  Bi 0.24011 0.24011 0.00000 1.0000
  Bi  Bi 0.28156 0.26083 0.36895 1.0000
  Bi  Bi 0.28156 0.26083 0.36895 1.0000
  Bi  Bi 0.26955 0.24302 0.63104 1.0000
  Bi  Bi 0.26955 0.24302 0.63104 1.0000
  Bi  Bi 0.26374 0.24011 0.00000 1.0000
  Bi  Bi 0.26374 0.24011 0.00000 1.0000
  Bi  Bi 0.26374 0.24011 0.00000 1.0000
  Bi  Bi 0.26374 0.24011 0.00000 1.0000
  Bi  Bi 0.30518 0.26083 0.36895 1.0000
  Bi  Bi 0.30518 0.26083 0.36895 1.0000
  Bi  Bi 0.29318 0.24302 0.63104 1.0000
  Bi  Bi 0.29318 0.24302 0.63104 1.0000
  Bi  Bi 0.28737 0.24011 0.00000 1.0000
  Bi  Bi 0.28737 0.24011 0.00000 1.0000
  Bi  Bi 0.28737 0.24011 0.00000 1.0000
  Bi  Bi 0.28737 0.24011 0.00000 1.0000
  Bi  Bi 0.32881 0.26083 0.36895 1.0000
  Bi  Bi 0.32881 0.26083 0.36895 1.0000
  Bi  Bi 0.31680 0.24302 0.63104 1.0000
  Bi  Bi 0.31680 0.24302 0.63104 1.0000
  Bi  Bi 0.31099 0.24011 0.00000 1.0000
  Bi  Bi 0.31099 0.24011 0.00000 1.0000
  Bi  Bi 0.31099 0.24011 0.00000 1.0000
  Bi  Bi 0.31099 0.24011 0.00000 1.0000
  Bi  Bi 0.35243 0.26083 0.36895 1.0000
  Bi  Bi 0.35243 0.26083 0.36895 1.0000
  Bi  Bi 0.34043 0.24302 0.63104 1.0000
  Bi  Bi 0.34043 0.24302 0.63104 1.0000
  Bi  Bi 0.33462 0.24011 0.00000 1.0000
  Bi  Bi 0.33462 0.24011 0.00000 1.0000
  Bi  Bi 0.33462 0.24011 0.00000 1.0000
  Bi  Bi 0.33462 0.24011 0.00000 1.0000
  Bi  Bi 0.37606 0.26083 0.36895 1.0000
  Bi  Bi 0.37606 0.26083 0.36895 1.0000
  Bi  Bi 0.36406 0.24302 0.63104 1.0000
  Bi  Bi 0.36406 0.24302 0.63104 1.0000
  Bi  Bi 0.35824 0.24011 0.00000 1.0000
  Bi  Bi 0.35824 0.24011 0.00000 1.0000
  Bi  Bi 0.35824 0.24011 0.00000 1.0000
  Bi  Bi 0.35824 0.24011 0.00000 1.0000
  Bi  Bi 0.39968 0.26083 0.36895 1.0000
  Bi  Bi 0.39968 0.26083 0.36895 1.0000
  Bi  Bi 0.38768 0.24302 0.63104 1.0000
  Bi  Bi 0.38768 0.24302 0.63104 1.0000
  Bi  Bi 0.38187 0.24011 0.00000 1.0000
  Bi  Bi 0.38187 0.24011 0.00000 1.0000
  Bi  Bi 0.38187 0.24011 0.00000 1.0000
  Bi  Bi 0.38187 0.24011 0.00000 1.0000
  Bi  Bi 0.42331 0.26083 0.36895 1.0000
  Bi  Bi 0.42331 0.26083 0.36895 1.0000
  Bi  Bi 0.41131 0.24302 0.63104 1.0000
  Bi  Bi 0.41131 0.24302 0.63104 1.0000
  Bi  Bi 0.40550 0.24011 0.00000 1.0000
  Bi  Bi 0.40550 0.24011 0.00000 1.0000
  Bi  Bi 0.40550 0.24011 0.00000 1.0000
  Bi  Bi 0.40550 0.24011 0.00000 1.0000
  Bi  Bi 0.44694 0.26083 0.36895 1.0000
  Bi  Bi 0.44694 0.26083 0.36895 1.0000
  Bi  Bi 0.43493 0.24302 0.63104 1.0000
  Bi  Bi 0.43493 0.24302 0.63104 1.0000
  Bi  Bi 0.42912 0.24011 0.00000 1.0000
  Bi  Bi 0.42912 0.24011 0.00000 1.0000
  Bi  Bi 0.42912 0.24011 0.00000 1.0000
  Bi  Bi 0.42912 0.24011 0.00000 1.0000
  Bi  Bi 0.47056 0.26083 0.36895 1.0000
  Bi  Bi 0.47056 0.26083 0.36895 1.0000
  Bi  Bi 0.45856 0.24302 0.63104 1.0000
  Bi  Bi 0.45856 0.24302 0.63104 1.0000
  Bi  Bi 0.45275 0.24011 0.00000 1.0000
  Bi  Bi 0.45275 0.24011 0.00000 1.0000
  Bi  Bi 0.45275 0.24011 0.00000 1.0000
  Bi  Bi 0.45275 0.24011 0.00000 1.0000
  Bi  Bi 0.49419 0.26083 0.36895 1.0000
  Bi  Bi 0.49419 0.26083 0.36895 1.0000
  Bi  Bi 0.48219 0.24302 0.63104 1.0000
  Bi  Bi 0.48219 0.24302 0.63104 1.0000
  Bi  Bi 0.47637 0.24011 0.00000 1.0000
  Bi  Bi 0.47637 0.24011 0.00000 1.0000
  Bi  Bi 0.47637 0.24011 0.00000 1.0000
  Bi  Bi 0.47637 0.24011 0.00000 1.0000
  Bi  Bi 0.51781 0.26083 0.36895 1.0000
  Bi  Bi 0.51781 0.26083 0.36895 1.0000
  Bi  Bi 0.50581 0.24302 0.63104 1.0000
  Bi  Bi 0.50581 0.24302 0.63104 1.0000
  Bi  Bi 0.50000 0.24011 0.00000 1.0000
  Bi  Bi 0.50000 0.24011 0.00000 1.0000
  Bi  Bi 0.50000 0.24011 0.00000 1.0000
  Bi  Bi 0.50000 0.24011 0.00000 1.0000
  Bi  Bi 0.54144 0.26083 0.36895 1.0000
  Bi  Bi 0.54144 0.26083 0.36895 1.0000
  Bi  Bi 0.52944 0.24302 0.63104 1.0000
  Bi  Bi 0.52944 0.24302 0.63104 1.0000
  Bi  Bi 0.52363 0.24011 0.00000 1.0000
  Bi  Bi 0.52363 0.24011 0.00000 1.0000
  Bi  Bi 0.52363 0.24011 0.00000 1.0000
  Bi  Bi 0.52363 0.24011 0.00000 1.0000
  Bi  Bi 0.56507 0.26083 0.36895 1.0000
  Bi  Bi 0.56507 0.26083 0.36895 1.0000
  Bi  Bi 0.55306 0.24302 0.63104 1.0000
  Bi  Bi 0.55306 0.24302 0.63104 1.0000
  Bi  Bi 0.54725 0.24011 0.00000 1.0000
  Bi  Bi 0.54725 0.24011 0.00000 1.0000
  Bi  Bi 0.54725 0.24011 0.00000 1.0000
  Bi  Bi 0.54725 0.24011 0.00000 1.0000
  Bi  Bi 0.58869 0.26083 0.36895 1.0000
  Bi  Bi 0.58869 0.26083 0.36895 1.0000
  Bi  Bi 0.57669 0.24302 0.63104 1.0000
  Bi  Bi 0.57669 0.24302 0.63104 1.0000
  Bi  Bi 0.57088 0.24011 0.00000 1.0000
  Bi  Bi 0.57088 0.24011 0.00000 1.0000
  Bi  Bi 0.57088 0.24011 0.00000 1.0000
  Bi  Bi 0.57088 0.24011 0.00000 1.0000
  Bi  Bi 0.61232 0.26083 0.36895 1.0000
  Bi  Bi 0.61232 0.26083 0.36895 1.0000
  Bi  Bi 0.60032 0.24302 0.63104 1.0000
  Bi  Bi 0.60032 0.24302 0.63104 1.0000
  Bi  Bi 0.59450 0.24011 0.00000 1.0000
  Bi  Bi 0.59450 0.24011 0.00000 1.0000
  Bi  Bi 0.59450 0.24011 0.00000 1.0000
  Bi  Bi 0.59450 0.24011 0.00000 1.0000
  Bi  Bi 0.63594 0.26083 0.36895 1.0000
  Bi  Bi 0.63594 0.26083 0.36895 1.0000
  Bi  Bi 0.62394 0.24302 0.63104 1.0000
  Bi  Bi 0.62394 0.24302 0.63104 1.0000
  Bi  Bi 0.61813 0.24011 0.00000 1.0000
  Bi  Bi 0.61813 0.24011 0.00000 1.0000
  Bi  Bi 0.61813 0.24011 0.00000 1.0000
  Bi  Bi 0.61813 0.24011 0.00000 1.0000
  Bi  Bi 0.65957 0.26083 0.36895 1.0000
  Bi  Bi 0.65957 0.26083 0.36895 1.0000
  Bi  Bi 0.64757 0.24302 0.63104 1.0000
  Bi  Bi 0.64757 0.24302 0.63104 1.0000
  Bi  Bi 0.64176 0.24011 0.00000 1.0000
  Bi  Bi 0.64176 0.24011 0.00000 1.0000
  Bi  Bi 0.64176 0.24011 0.00000 1.0000
  Bi  Bi 0.64176 0.24011 0.00000 1.0000
  Bi  Bi 0.68320 0.26083 0.36895 1.0000
  Bi  Bi 0.68320 0.26083 0.36895 1.0000
  Bi  Bi 0.67119 0.24302 0.63104 1.0000
  Bi  Bi 0.67119 0.24302 0.63104 1.0000
  Bi  Bi 0.66538 0.24011 0.00000 1.0000
  Bi  Bi 0.66538 0.24011 0.00000 1.0000
  Bi  Bi 0.66538 0.24011 0.00000 1.0000
  Bi  Bi 0.66538 0.24011 0.00000 1.0000
  Bi  Bi 0.70682 0.26083 0.36895 1.0000
  Bi  Bi 0.70682 0.26083 0.36895 1.0000
  Bi  Bi 0.69482 0.24302 0.63104 1.0000
  Bi  Bi 0.69482 0.24302 0.63104 1.0000
  Bi  Bi 0.68901 0.24011 0.00000 1.0000
  Bi  Bi 0.68901 0.24011 0.00000 1.0000
  Bi  Bi 0.68901 0.24011 0.00000 1.0000
  Bi  Bi 0.68901 0.24011 0.00000 1.0000
  Bi  Bi 0.73045 0.26083 0.36895 1.0000
  Bi  Bi 0.73045 0.26083 0.36895 1.0000
  Bi  Bi 0.71844 0.24302 0.63104 1.0000
  Bi  Bi 0.71844 0.24302 0.63104 1.0000
  Bi  Bi 0.71263 0.24011 0.00000 1.0000
  Bi  Bi 0.71263 0.24011 0.00000 1.0000
  Bi  Bi 0.71263 0.24011 0.00000 1.0000
  Bi  Bi 0.71263 0.24011 0.00000 1.0000
  Bi  Bi 0.75407 0.26083 0.36895 1.0000
  Bi  Bi 0.75407 0.26083 0.36895 1.0000
  Bi  Bi 0.74207 0.24302 0.63104 1.0000
  Bi  Bi 0.74207 0.24302 0.63104 1.0000
  Bi  Bi 0.73626 0.24011 0.00000 1.0000
  Bi  Bi 0.73626 0.24011 0.00000 1.0000
  Bi  Bi 0.73626 0.24011 0.00000 1.0000
  Bi  Bi 0.73626 0.24011 0.00000 1.0000
  Bi  Bi 0.77770 0.26083 0.36895 1.0000
  Bi  Bi 0.77770 0.26083 0.36895 1.0000
  Bi  Bi 0.76570 0.24302 0.63104 1.0000
  Bi  Bi 0.76570 0.24302 0.63104 1.0000
  Bi  Bi 0.75989 0.24011 0.00000 1.0000
  Bi  Bi 0.75989 0.24011 0.00000 1.0000
  Bi  Bi 0.75989 0.24011 0.00000 1.0000
  Bi  Bi 0.75989 0.24011 0.00000 1.0000
  Bi  Bi 0.80133 0.26083 0.36895 1.0000
  Bi  Bi 0.80133 0.26083 0.36895 1.0000
  Bi  Bi 0.78932 0.24302 0.63104 1.0000
  Bi  Bi 0.78932 0.24302 0.63104 1.0000
  Bi  Bi 0.78351 0.24011 0.00000 1.0000
  Bi  Bi 0.78351 0.24011 0.00000 1.0000
  Bi  Bi 0.78351 0.24011 0.00000 1.0000
  Bi  Bi 0.78351 0.24011 0.00000 1.0000
  Bi  Bi 0.82495 0.26083 0.36895 1.0000
  Bi  Bi 0.82495 0.26083 0.36895 1.0000
  Bi  Bi 0.81295 0.24302 0.63104 1.0000
  Bi  Bi 0.81295 0.24302 0.63104 1.0000
  Bi  Bi 0.80714 0.24011 0.00000 1.0000
  Bi  Bi 0.80714 0.24011 0.00000 1.0000
  Bi  Bi 0.80714 0.24011 0.00000 1.0000
  Bi  Bi 0.80714 0.24011 0.00000 1.0000
  Bi  Bi 0.84858 0.26083 0.36895 1.0000
  Bi  Bi 0.84858 0.26083 0.36895 1.0000
  Bi  Bi 0.83657 0.24302 0.63104 1.0000
  Bi  Bi 0.83657 0.24302 0.63104 1.0000
  Bi  Bi 0.83076 0.24011 0.00000 1.0000
  Bi  Bi 0.83076 0.24011 0.00000 1.0000
  Bi  Bi 0.83076 0.24011 0.00000 1.0000
  Bi  Bi 0.83076 0.24011 0.00000 1.0000
  Bi  Bi 0.87220 0.26083 0.36895 1.0000
  Bi  Bi 0.87220 0.26083 0.36895 1.0000
  Bi  Bi 0.86020 0.24302 0.63104 1.0000
  Bi  Bi 0.86020 0.24302 0.63104 1.0000
  Bi  Bi 0.85439 0.24011 0.00000 1.0000
  Bi  Bi 0.85439 0.24011 0.00000 1.0000
  Bi  Bi 0.85439 0.24011 0.00000 1.0000
  Bi  Bi 0.85439 0.24011 0.00000 1.0000
  Bi  Bi 0.89583 0.26083 0.36895 1.0000
  Bi  Bi 0.89583 0.26083 0.36895 1.0000
  Bi  Bi 0.88383 0.24302 0.63104 1.0000
  Bi  Bi 0.88383 0.24302 0.63104 1.0000
  Bi  Bi 0.87802 0.24011 0.00000 1.0000
  Bi  Bi 0.87802 0.24011 0.00000 1.0000
  Bi  Bi 0.87802 0.24011 0.00000 1.0000
  Bi  Bi 0.87802 0.24011 0.00000 1.0000
  Bi  Bi 0.91946 0.26083 0.36895 1.0000
  Bi  Bi 0.91946 0.26083 0.36895 1.0000
  Bi  Bi 0.90745 0.24302 0.63104 1.0000
  Bi  Bi 0.90745 0.24302 0.63104 1.0000
  Bi  Bi 0.90164 0.24011 0.00000 1.0000
  Bi  Bi 0.90164 0.24011 0.00000 1.0000
  Bi  Bi 0.90164 0.24011 0.00000 1.0000
  Bi  Bi 0.90164 0.24011 0.00000 1.0000
  Bi  Bi 0.94308 0.26083 0.36895 1.0000
  Bi  Bi 0.94308 0.26083 0.36895 1.0000
  Bi  Bi 0.93108 0.24302 0.63104 1.0000
  Bi  Bi 0.93108 0.24302 0.63104 1.0000
  Bi  Bi 0.92527 0.24011 0.00000 1.0000
  Bi  Bi 0.92527 0.24011 0.00000 1.0000
  Bi  Bi 0.92527 0.24011 0.00000 1.0000
  Bi  Bi 0.92527 0.24011 0.00000 1.0000
  Bi  Bi 0.96671 0.26083 0.36895 1.0000
  Bi  Bi 0.96671 0.26083 0.36895 1.0000
  Bi  Bi 0.95470 0.24302 0.63104 1.0000
  Bi  Bi 0.95470 0.24302 0.63104 1.0000
  Bi  Bi 0.94889 0.24011 0.00000 1.0000
  Bi  Bi 0.94889 0.24011 0.00000 1.0000
  Bi  Bi 0.94889 0.24011 0.00000 1.0000
  Bi  Bi 0.94889 0.24011 0.00000 1.0000
  Bi  Bi 0.04530 0.28446 0.36895 1.0000
  Bi  Bi 0.04530 0.28446 0.36895 1.0000
  Bi  Bi 0.03329 0.26665 0.63104 1.0000
  Bi  Bi 0.03329 0.26665 0.63104 1.0000
  Bi  Bi 0.02748 0.26374 0.00000 1.0000
  Bi  Bi 0.02748 0.26374 0.00000 1.0000
  Bi  Bi 0.02748 0.26374 0.00000 1.0000
  Bi  Bi 0.02748 0.26374 0.00000 1.0000
  Bi  Bi 0.06892 0.28446 0.36895 1.0000
  Bi  Bi 0.06892 0.28446 0.36895 1.0000
  Bi  Bi 0.05692 0.26665 0.63104 1.0000
  Bi  Bi 0.05692 0.26665 0.63104 1.0000
  Bi  Bi 0.05111 0.26374 0.00000 1.0000
  Bi  Bi 0.05111 0.26374 0.00000 1.0000
  Bi  Bi 0.05111 0.26374 0.00000 1.0000
  Mo  Mo 0.05111 0.26374 0.00000 1.0000
  Bi  Bi 0.09255 0.28446 0.36895 1.0000
  Bi  Bi 0.09255 0.28446 0.36895 1.0000
  Bi  Bi 0.08054 0.26665 0.63104 1.0000
  Bi  Bi 0.08054 0.26665 0.63104 1.0000
  Bi  Bi 0.07473 0.26374 0.00000 1.0000
  Bi  Bi 0.07473 0.26374 0.00000 1.0000
  Bi  Bi 0.07473 0.26374 0.00000 1.0000
  Mo  Mo 0.07473 0.26374 0.00000 1.0000
  Bi  Bi 0.11617 0.28446 0.36895 1.0000
  Bi  Bi 0.11617 0.28446 0.36895 1.0000
  Bi  Bi 0.10417 0.26665 0.63104 1.0000
  Bi  Bi 0.10417 0.26665 0.63104 1.0000
  Bi  Bi 0.09836 0.26374 0.00000 1.0000
  Bi  Bi 0.09836 0.26374 0.00000 1.0000
  Bi  Bi 0.09836 0.26374 0.00000 1.0000
  Mo  Mo 0.09836 0.26374 0.00000 1.0000
  Bi  Bi 0.13980 0.28446 0.36895 1.0000
  Bi  Bi 0.13980 0.28446 0.36895 1.0000
  Bi  Bi 0.12780 0.26665 0.63104 1.0000
  Bi  Bi 0.12780 0.26665 0.63104 1.0000
  Bi  Bi 0.12198 0.26374 0.00000 1.0000
  Bi  Bi 0.12198 0.26374 0.00000 1.0000
  Bi  Bi 0.12198 0.26374 0.00000 1.0000
  Bi  Bi 0.12198 0.26374 0.00000 1.0000
  Bi  Bi 0.16343 0.28446 0.36895 1.0000
  Bi  Bi 0.16343 0.28446 0.36895 1.0000
  Bi  Bi 0.15142 0.26665 0.63104 1.0000
  Bi  Bi 0.15142 0.26665 0.63104 1.0000
  Bi  Bi 0.14561 0.26374 0.00000 1.0000
  Bi  Bi 0.14561 0.26374 0.00000 1.0000
  Bi  Bi 0.14561 0.26374 0.00000 1.0000
  Bi  Bi 0.14561 0.26374 0.00000 1.0000
  Bi  Bi 0.18705 0.28446 0.36895 1.0000
  Bi  Bi 0.18705 0.28446 0.36895 1.0000
  Bi  Bi 0.17505 0.26665 0.63104 1.0000
  Bi  Bi 0.17505 0.26665 0.63104 1.0000
  Bi  Bi 0.16924 0.26374 0.00000 1.0000
  Bi  Bi 0.16924 0.26374 0.00000 1.0000
  Bi  Bi 0.16924 0.26374 0.00000 1.0000
  Bi  Bi 0.16924 0.26374 0.00000 1.0000
  Bi  Bi 0.21068 0.28446 0.36895 1.0000
  Bi  Bi 0.21068 0.28446 0.36895 1.0000
  Bi  Bi 0.19867 0.26665 0.63104 1.0000
  Bi  Bi 0.19867 0.26665 0.63104 1.0000
  Bi  Bi 0.19286 0.26374 0.00000 1.0000
  Bi  Bi 0.19286 0.26374 0.00000 1.0000
  Bi  Bi 0.19286 0.26374 0.00000 1.0000
  Bi  Bi 0.19286 0.26374 0.00000 1.0000
  Bi  Bi 0.23430 0.28446 0.36895 1.0000
  Bi  Bi 0.23430 0.28446 0.36895 1.0000
  Bi  Bi 0.22230 0.26665 0.63104 1.0000
  Bi  Bi 0.22230 0.26665 0.63104 1.0000
  Bi  Bi 0.21649 0.26374 0.00000 1.0000
  Bi  Bi 0.21649 0.26374 0.00000 1.0000
  Bi  Bi 0.21649 0.26374 0.00000 1.0000
  Bi  Bi 0.21649 0.26374 0.00000 1.0000
  Bi  Bi 0.25793 0.28446 0.36895 1.0000
  Bi  Bi 0.25793 0.28446 0.36895 1.0000
  Bi  Bi 0.24593 0.26665 0.63104 1.0000
  Bi  Bi 0.24593 0.26665 0.63104 1.0000
  Bi  Bi 0.24011 0.26374 0.00000 1.0000
  Bi  Bi 0.24011 0.26374 0.00000 1.0000
  Bi  Bi 0.24011 0.26374 0.00000 1.0000
  Bi  Bi 0.24011 0.26374 0.00000 1.0000
  Bi  Bi 0.28156 0.28446 0.36895 1.0000
  Bi  Bi 0.28156 0.28446 0.36895 1.0000
  Bi  Bi 0.26955 0.26665 0.63104 1.0000
  Bi  Bi 0.26955 0.26665 0.63104 1.0000
  Bi  Bi 0.26374 0.26374 0.00000 1.0000
  Bi  Bi 0.26374 0.26374 0.00000 1.0000
  Bi  Bi 0.26374 0.26374 0.00000 1.0000
  Bi  Bi 0.26374 0.26374 0.00000 1.0000
  Bi  Bi 0.30518 0.28446 0.36895 1.0000
  Bi  Bi 0.30518 0.28446 0.36895 1.0000
  Bi  Bi 0.29318 0.26665 0.63104 1.0000
  Bi  Bi 0.29318 0.26665 0.63104 1.0000
  Bi  Bi 0.28737 0.26374 0.00000 1.0000
  Bi  Bi 0.28737 0.26374 0.00000 1.0000
  Bi  Bi 0.28737 0.26374 0.00000 1.0000
  Bi  Bi 0.28737 0.26374 0.00000 1.0000
  Bi  Bi 0.32881 0.28446 0.36895 1.0000
  Bi  Bi 0.32881 0.28446 0.36895 1.0000
  Bi  Bi 0.31680 0.26665 0.63104 1.0000
  Bi  Bi 0.31680 0.26665 0.63104 1.0000
  Bi  Bi 0.31099 0.26374 0.00000 1.0000
  Bi  Bi 0.31099 0.26374 0.00000 1.0000
  Bi  Bi 0.31099 0.26374 0.00000 1.0000
  Bi  Bi 0.31099 0.26374 0.00000 1.0000
  Bi  Bi 0.35243 0.28446 0.36895 1.0000
  Bi  Bi 0.35243 0.28446 0.36895 1.0000
  Bi  Bi 0.34043 0.26665 0.63104 1.0000
  Bi  Bi 0.34043 0.26665 0.63104 1.0000
  Bi  Bi 0.33462 0.26374 0.00000 1.0000
  Bi  Bi 0.33462 0.26374 0.00000 1.0000
  Bi  Bi 0.33462 0.26374 0.00000 1.0000
  Bi  Bi 0.33462 0.26374 0.00000 1.0000
  Bi  Bi 0.37606 0.28446 0.36895 1.0000
  Bi  Bi 0.37606 0.28446 0.36895 1.0000
  Bi  Bi 0.36406 0.26665 0.63104 1.0000
  Bi  Bi 0.36406 0.26665 0.63104 1.0000
  Bi  Bi 0.35824 0.26374 0.00000 1.0000
  Bi  Bi 0.35824 0.26374 0.00000 1.0000
  Bi  Bi 0.35824 0.26374 0.00000 1.0000
  Bi  Bi 0.35824 0.26374 0.00000 1.0000
  Bi  Bi 0.39968 0.28446 0.36895 1.0000
  Bi  Bi 0.39968 0.28446 0.36895 1.0000
  Bi  Bi 0.38768 0.26665 0.63104 1.0000
  Bi  Bi 0.38768 0.26665 0.63104 1.0000
  Bi  Bi 0.38187 0.26374 0.00000 1.0000
  Bi  Bi 0.38187 0.26374 0.00000 1.0000
  Bi  Bi 0.38187 0.26374 0.00000 1.0000
  Bi  Bi 0.38187 0.26374 0.00000 1.0000
  Bi  Bi 0.42331 0.28446 0.36895 1.0000
  Bi  Bi 0.42331 0.28446 0.36895 1.0000
  Bi  Bi 0.41131 0.26665 0.63104 1.0000
  Bi  Bi 0.41131 0.26665 0.63104 1.0000
  Bi  Bi 0.40550 0.26374 0.00000 1.0000
  Bi  Bi 0.40550 0.26374 0.00000 1.0000
  Bi  Bi 0.40550 0.26374 0.00000 1.0000
  Bi  Bi 0.40550 0.26374 0.00000 1.0000
  Bi  Bi 0.44694 0.28446 0.36895 1.0000
  Bi  Bi 0.44694 0.28446 0.36895 1.0000
  Bi  Bi 0.43493 0.26665 0.63104 1.0000
  Bi  Bi 0.43493 0.26665 0.63104 1.0000
  Bi  Bi 0.42912 0.26374 0.00000 1.0000
  Bi  Bi 0.42912 0.26374 0.00000 1.0000
  Bi  Bi 0.42912 0.26374 0.00000 1.0000
  Bi  Bi 0.42912 0.26374 0.00000 1.0000
  Bi  Bi 0.47056 0.28446 0.36895 1.0000
  Bi  Bi 0.47056 0.28446 0.36895 1.0000
  Bi  Bi 0.45856 0.26665 0.63104 1.0000
  Bi  Bi 0.45856 0.26665 0.63104 1.0000
  Bi  Bi 0.45275 0.26374 0.00000 1.0000
  Bi  Bi 0.45275 0.26374 0.00000 1.0000
  Bi  Bi 0.45275 0.26374 0.00000 1.0000
  Bi  Bi 0.45275 0.26374 0.00000 1.0000
  Bi  Bi 0.49419 0.28446 0.36895 1.0000
  Bi  Bi 0.49419 0.28446 0.36895 1.0000
  Bi  Bi 0.48219 0.26665 0.63104 1.0000
  Bi  Bi 0.48219 0.26665 0.63104 1.0000
  Bi  Bi 0.47637 0.26374 0.00000 1.0000
  Bi  Bi 0.47637 0.26374 0.00000 1.0000
  Bi  Bi 0.47637 0.26374 0.00000 1.0000
  Bi  Bi 0.47637 0.26374 0.00000 1.0000
  Bi  Bi 0.51781 0.28446 0.36895 1.0000
  Bi  Bi 0.51781 0.28446 0.36895 1.0000
  Bi  Bi 0.50581 0.26665 0.63104 1.0000
  Bi  Bi 0.50581 0.26665 0.63104 1.0000
  Bi  Bi 0.50000 0.26374 0.00000 1.0000
  Bi  Bi 0.50000 0.26374 0.00000 1.0000
  Bi  Bi 0.50000 0.26374 0.00000 1.0000
  Bi  Bi 0.50000 0.26374 0.00000 1.0000
  Bi  Bi 0.54144 0.28446 0.36895 1.0000
  Bi  Bi 0.54144 0.28446 0.36895 1.0000
  Bi  Bi 0.52944 0.26665 0.63104 1.0000
  Bi  Bi 0.52944 0.26665 0.63104 1.0000
  Bi  Bi 0.52363 0.26374 0.00000 1.0000
  Bi  Bi 0.52363 0.26374 0.00000 1.0000
  Bi  Bi 0.52363 0.26374 0.00000 1.0000
  Bi  Bi 0.52363 0.26374 0.00000 1.0000
  Bi  Bi 0.56507 0.28446 0.36895 1.0000
  Bi  Bi 0.56507 0.28446 0.36895 1.0000
  Bi  Bi 0.55306 0.26665 0.63104 1.0000
  Bi  Bi 0.55306 0.26665 0.63104 1.0000
  Bi  Bi 0.54725 0.26374 0.00000 1.0000
  Bi  Bi 0.54725 0.26374 0.00000 1.0000
  Bi  Bi 0.54725 0.26374 0.00000 1.0000
  Bi  Bi 0.54725 0.26374 0.00000 1.0000
  Bi  Bi 0.58869 0.28446 0.36895 1.0000
  Bi  Bi 0.58869 0.28446 0.36895 1.0000
  Bi  Bi 0.57669 0.26665 0.63104 1.0000
  Bi  Bi 0.57669 0.26665 0.63104 1.0000
  Bi  Bi 0.57088 0.26374 0.00000 1.0000
  Bi  Bi 0.57088 0.26374 0.00000 1.0000
  Bi  Bi 0.57088 0.26374 0.00000 1.0000
  Bi  Bi 0.57088 0.26374 0.00000 1.0000
  Bi  Bi 0.61232 0.28446 0.36895 1.0000
  Bi  Bi 0.61232 0.28446 0.36895 1.0000
  Bi  Bi 0.60032 0.26665 0.63104 1.0000
  Bi  Bi 0.60032 0.26665 0.63104 1.0000
  Bi  Bi 0.59450 0.26374 0.00000 1.0000
  Bi  Bi 0.59450 0.26374 0.00000 1.0000
  Bi  Bi 0.59450 0.26374 0.00000 1.0000
  Bi  Bi 0.59450 0.26374 0.00000 1.0000
  Bi  Bi 0.63594 0.28446 0.36895 1.0000
  Bi  Bi 0.63594 0.28446 0.36895 1.0000
  Bi  Bi 0.62394 0.26665 0.63104 1.0000
  Bi  Bi 0.62394 0.26665 0.63104 1.0000
  Bi  Bi 0.61813 0.26374 0.00000 1.0000
  Bi  Bi 0.61813 0.26374 0.00000 1.0000
  Bi  Bi 0.61813 0.26374 0.00000 1.0000
  Bi  Bi 0.61813 0.26374 0.00000 1.0000
  Bi  Bi 0.65957 0.28446 0.36895 1.0000
  Bi  Bi 0.65957 0.28446 0.36895 1.0000
  Bi  Bi 0.64757 0.26665 0.63104 1.0000
  Bi  Bi 0.64757 0.26665 0.63104 1.0000
  Bi  Bi 0.64176 0.26374 0.00000 1.0000
  Bi  Bi 0.64176 0.26374 0.00000 1.0000
  Bi  Bi 0.64176 0.26374 0.00000 1.0000
  Bi  Bi 0.64176 0.26374 0.00000 1.0000
  Bi  Bi 0.68320 0.28446 0.36895 1.0000
  Bi  Bi 0.68320 0.28446 0.36895 1.0000
  Bi  Bi 0.67119 0.26665 0.63104 1.0000
  Bi  Bi 0.67119 0.26665 0.63104 1.0000
  Bi  Bi 0.66538 0.26374 0.00000 1.0000
  Bi  Bi 0.66538 0.26374 0.00000 1.0000
  Bi  Bi 0.66538 0.26374 0.00000 1.0000
  Bi  Bi 0.66538 0.26374 0.00000 1.0000
  Bi  Bi 0.70682 0.28446 0.36895 1.0000
  Bi  Bi 0.70682 0.28446 0.36895 1.0000
  Bi  Bi 0.69482 0.26665 0.63104 1.0000
  Bi  Bi 0.69482 0.26665 0.63104 1.0000
  Bi  Bi 0.68901 0.26374 0.00000 1.0000
  Bi  Bi 0.68901 0.26374 0.00000 1.0000
  Bi  Bi 0.68901 0.26374 0.00000 1.0000
  Bi  Bi 0.68901 0.26374 0.00000 1.0000
  Bi  Bi 0.73045 0.28446 0.36895 1.0000
  Bi  Bi 0.73045 0.28446 0.36895 1.0000
  Bi  Bi 0.71844 0.26665 0.63104 1.0000
  Bi  Bi 0.71844 0.26665 0.63104 1.0000
  Bi  Bi 0.71263 0.26374 0.00000 1.0000
  Bi  Bi 0.71263 0.26374 0.00000 1.0000
  Bi  Bi 0.71263 0.26374 0.00000 1.0000
  Bi  Bi 0.71263 0.26374 0.00000 1.0000
  Bi  Bi 0.75407 0.28446 0.36895 1.0000
  Bi  Bi 0.75407 0.28446 0.36895 1.0000
  Bi  Bi 0.74207 0.26665 0.63104 1.0000
  Bi  Bi 0.74207 0.26665 0.63104 1.0000
  Bi  Bi 0.73626 0.26374 0.00000 1.0000
  Bi  Bi 0.73626 0.26374 0.00000 1.0000
  Bi  Bi 0.73626 0.26374 0.00000 1.0000
  Bi  Bi 0.73626 0.26374 0.00000 1.0000
  Bi  Bi 0.77770 0.28446 0.36895 1.0000
  Bi  Bi 0.77770 0.28446 0.36895 1.0000
  Bi  Bi 0.76570 0.26665 0.63104 1.0000
  Bi  Bi 0.76570 0.26665 0.63104 1.0000
  Bi  Bi 0.75989 0.26374 0.00000 1.0000
  Bi  Bi 0.75989 0.26374 0.00000 1.0000
  Bi  Bi 0.75989 0.26374 0.00000 1.0000
  Bi  Bi 0.75989 0.26374 0.00000 1.0000
  Bi  Bi 0.80133 0.28446 0.36895 1.0000
  Bi  Bi 0.80133 0.28446 0.36895 1.0000
  Bi  Bi 0.78932 0.26665 0.63104 1.0000
  Bi  Bi 0.78932 0.26665 0.63104 1.0000
  Bi  Bi 0.78351 0.26374 0.00000 1.0000
  Bi  Bi 0.78351 0.26374 0.00000 1.0000
  Bi  Bi 0.78351 0.26374 0.00000 1.0000
  Bi  Bi 0.78351 0.26374 0.00000 1.0000
  Bi  Bi 0.82495 0.28446 0.36895 1.0000
  Bi  Bi 0.82495 0.28446 0.36895 1.0000
  Bi  Bi 0.81295 0.26665 0.63104 1.0000
  Bi  Bi 0.81295 0.26665 0.63104 1.0000
  Bi  Bi 0.80714 0.26374 0.00000 1.0000
  Bi  Bi 0.80714 0.26374 0.00000 1.0000
  Bi  Bi 0.80714 0.26374 0.00000 1.0000
  Bi  Bi 0.80714 0.26374 0.00000 1.0000
  Bi  Bi 0.84858 0.28446 0.36895 1.0000
  Bi  Bi 0.84858 0.28446 0.36895 1.0000
  Bi  Bi 0.83657 0.26665 0.63104 1.0000
  Bi  Bi 0.83657 0.26665 0.63104 1.0000
  Bi  Bi 0.83076 0.26374 0.00000 1.0000
  Bi  Bi 0.83076 0.26374 0.00000 1.0000
  Bi  Bi 0.83076 0.26374 0.00000 1.0000
  Bi  Bi 0.83076 0.26374 0.00000 1.0000
  Bi  Bi 0.87220 0.28446 0.36895 1.0000
  Bi  Bi 0.87220 0.28446 0.36895 1.0000
  Bi  Bi 0.86020 0.26665 0.63104 1.0000
  Bi  Bi 0.86020 0.26665 0.63104 1.0000
  Bi  Bi 0.85439 0.26374 0.00000 1.0000
  Bi  Bi 0.85439 0.26374 0.00000 1.0000
  Bi  Bi 0.85439 0.26374 0.00000 1.0000
  Bi  Bi 0.85439 0.26374 0.00000 1.0000
  Bi  Bi 0.89583 0.28446 0.36895 1.0000
  Bi  Bi 0.89583 0.28446 0.36895 1.0000
  Bi  Bi 0.88383 0.26665 0.63104 1.0000
  Bi  Bi 0.88383 0.26665 0.63104 1.0000
  Bi  Bi 0.87802 0.26374 0.00000 1.0000
  Bi  Bi 0.87802 0.26374 0.00000 1.0000
  Bi  Bi 0.87802 0.26374 0.00000 1.0000
  Bi  Bi 0.87802 0.26374 0.00000 1.0000
  Bi  Bi 0.91946 0.28446 0.36895 1.0000
  Bi  Bi 0.91946 0.28446 0.36895 1.0000
  Bi  Bi 0.90745 0.26665 0.63104 1.0000
  Bi  Bi 0.90745 0.26665 0.63104 1.0000
  Bi  Bi 0.90164 0.26374 0.00000 1.0000
  Bi  Bi 0.90164 0.26374 0.00000 1.0000
  Bi  Bi 0.90164 0.26374 0.00000 1.0000
  Bi  Bi 0.90164 0.26374 0.00000 1.0000
  Bi  Bi 0.94308 0.28446 0.36895 1.0000
  Bi  Bi 0.94308 0.28446 0.36895 1.0000
  Bi  Bi 0.93108 0.26665 0.63104 1.0000
  Bi  Bi 0.93108 0.26665 0.63104 1.0000
  Bi  Bi 0.92527 0.26374 0.00000 1.0000
  Bi  Bi 0.92527 0.26374 0.00000 1.0000
  Bi  Bi 0.92527 0.26374 0.00000 1.0000
  Bi  Bi 0.92527 0.26374 0.00000 1.0000
  Bi  Bi 0.96671 0.28446 0.36895 1.0000
  Bi  Bi 0.96671 0.28446 0.36895 1.0000
  Bi  Bi 0.95470 0.26665 0.63104 1.0000
  Bi  Bi 0.95470 0.26665 0.63104 1.0000
  Bi  Bi 0.94889 0.26374 0.00000 1.0000
  Bi  Bi 0.94889 0.26374 0.00000 1.0000
  Bi  Bi 0.94889 0.26374 0.00000 1.0000
  Bi  Bi 0.94889 0.26374 0.00000 1.0000
  Bi  Bi 0.04530 0.30809 0.36895 1.0000
  Bi  Bi 0.04530 0.30809 0.36895 1.0000
  Bi  Bi 0.03329 0.29027 0.63104 1.0000
  Bi  Bi 0.03329 0.29027 0.63104 1.0000
  Bi  Bi 0.02748 0.28737 0.00000 1.0000
  Bi  Bi 0.02748 0.28737 0.00000 1.0000
  Bi  Bi 0.02748 0.28737 0.00000 1.0000
  Bi  Bi 0.02748 0.28737 0.00000 1.0000
  Bi  Bi 0.06892 0.30809 0.36895 1.0000
  Bi  Bi 0.06892 0.30809 0.36895 1.0000
  Bi  Bi 0.05692 0.29027 0.63104 1.0000
  Bi  Bi 0.05692 0.29027 0.63104 1.0000
  Bi  Bi 0.05111 0.28737 0.00000 1.0000
  Bi  Bi 0.05111 0.28737 0.00000 1.0000
  Bi  Bi 0.05111 0.28737 0.00000 1.0000
  Bi  Bi 0.05111 0.28737 0.00000 1.0000
  Bi  Bi 0.09255 0.30809 0.36895 1.0000
  Bi  Bi 0.09255 0.30809 0.36895 1.0000
  Bi  Bi 0.08054 0.29027 0.63104 1.0000
  Bi  Bi 0.08054 0.29027 0.63104 1.0000
  Bi  Bi 0.07473 0.28737 0.00000 1.0000
  Bi  Bi 0.07473 0.28737 0.00000 1.0000
  Bi  Bi 0.07473 0.28737 0.00000 1.0000
  Mo  Mo 0.07473 0.28737 0.00000 1.0000
  Bi  Bi 0.11617 0.30809 0.36895 1.0000
  Bi  Bi 0.11617 0.30809 0.36895 1.0000
  Bi  Bi 0.10417 0.29027 0.63104 1.0000
  Bi  Bi 0.10417 0.29027 0.63104 1.0000
  Bi  Bi 0.09836 0.28737 0.00000 1.0000
  Bi  Bi 0.09836 0.28737 0.00000 1.0000
  Bi  Bi 0.09836 0.28737 0.00000 1.0000
  Bi  Bi 0.09836 0.28737 0.00000 1.0000
  Bi  Bi 0.13980 0.30809 0.36895 1.0000
  Bi  Bi 0.13980 0.30809 0.36895 1.0000
  Bi  Bi 0.12780 0.29027 0.63104 1.0000
  Bi  Bi 0.12780 0.29027 0.63104 1.0000
  Bi  Bi 0.12198 0.28737 0.00000 1.0000
  Bi  Bi 0.12198 0.28737 0.00000 1.0000
  Bi  Bi 0.12198 0.28737 0.00000 1.0000
  Bi  Bi 0.12198 0.28737 0.00000 1.0000
  Bi  Bi 0.16343 0.30809 0.36895 1.0000
  Bi  Bi 0.16343 0.30809 0.36895 1.0000
  Bi  Bi 0.15142 0.29027 0.63104 1.0000
  Bi  Bi 0.15142 0.29027 0.63104 1.0000
  Bi  Bi 0.14561 0.28737 0.00000 1.0000
  Bi  Bi 0.14561 0.28737 0.00000 1.0000
  Bi  Bi 0.14561 0.28737 0.00000 1.0000
  Bi  Bi 0.14561 0.28737 0.00000 1.0000
  Bi  Bi 0.18705 0.30809 0.36895 1.0000
  Bi  Bi 0.18705 0.30809 0.36895 1.0000
  Bi  Bi 0.17505 0.29027 0.63104 1.0000
  Bi  Bi 0.17505 0.29027 0.63104 1.0000
  Bi  Bi 0.16924 0.28737 0.00000 1.0000
  Bi  Bi 0.16924 0.28737 0.00000 1.0000
  Bi  Bi 0.16924 0.28737 0.00000 1.0000
  Bi  Bi 0.16924 0.28737 0.00000 1.0000
  Bi  Bi 0.21068 0.30809 0.36895 1.0000
  Bi  Bi 0.21068 0.30809 0.36895 1.0000
  Bi  Bi 0.19867 0.29027 0.63104 1.0000
  Bi  Bi 0.19867 0.29027 0.63104 1.0000
  Bi  Bi 0.19286 0.28737 0.00000 1.0000
  Bi  Bi 0.19286 0.28737 0.00000 1.0000
  Bi  Bi 0.19286 0.28737 0.00000 1.0000
  Bi  Bi 0.19286 0.28737 0.00000 1.0000
  Bi  Bi 0.23430 0.30809 0.36895 1.0000
  Bi  Bi 0.23430 0.30809 0.36895 1.0000
  Bi  Bi 0.22230 0.29027 0.63104 1.0000
  Bi  Bi 0.22230 0.29027 0.63104 1.0000
  Bi  Bi 0.21649 0.28737 0.00000 1.0000
  Bi  Bi 0.21649 0.28737 0.00000 1.0000
  Bi  Bi 0.21649 0.28737 0.00000 1.0000
  Bi  Bi 0.21649 0.28737 0.00000 1.0000
  Bi  Bi 0.25793 0.30809 0.36895 1.0000
  Bi  Bi 0.25793 0.30809 0.36895 1.0000
  Bi  Bi 0.24593 0.29027 0.63104 1.0000
  Bi  Bi 0.24593 0.29027 0.63104 1.0000
  Bi  Bi 0.24011 0.28737 0.00000 1.0000
  Bi  Bi 0.24011 0.28737 0.00000 1.0000
  Bi  Bi 0.24011 0.28737 0.00000 1.0000
  Bi  Bi 0.24011 0.28737 0.00000 1.0000
  Bi  Bi 0.28156 0.30809 0.36895 1.0000
  Bi  Bi 0.28156 0.30809 0.36895 1.0000
  Bi  Bi 0.26955 0.29027 0.63104 1.0000
  Bi  Bi 0.26955 0.29027 0.63104 1.0000
  Bi  Bi 0.26374 0.28737 0.00000 1.0000
  Bi  Bi 0.26374 0.28737 0.00000 1.0000
  Bi  Bi 0.26374 0.28737 0.00000 1.0000
  Bi  Bi 0.26374 0.28737 0.00000 1.0000
  Bi  Bi 0.30518 0.30809 0.36895 1.0000
  Bi  Bi 0.30518 0.30809 0.36895 1.0000
  Bi  Bi 0.29318 0.29027 0.63104 1.0000
  Bi  Bi 0.29318 0.29027 0.63104 1.0000
  Bi  Bi 0.28737 0.28737 0.00000 1.0000
  Bi  Bi 0.28737 0.28737 0.00000 1.0000
  Bi  Bi 0.28737 0.28737 0.00000 1.0000
  Bi  Bi 0.28737 0.28737 0.00000 1.0000
  Bi  Bi 0.32881 0.30809 0.36895 1.0000
  Bi  Bi 0.32881 0.30809 0.36895 1.0000
  Bi  Bi 0.31680 0.29027 0.63104 1.0000
  Bi  Bi 0.31680 0.29027 0.63104 1.0000
  Bi  Bi 0.31099 0.28737 0.00000 1.0000
  Bi  Bi 0.31099 0.28737 0.00000 1.0000
  Bi  Bi 0.31099 0.28737 0.00000 1.0000
  Bi  Bi 0.31099 0.28737 0.00000 1.0000
  Bi  Bi 0.35243 0.30809 0.36895 1.0000
  Bi  Bi 0.35243 0.30809 0.36895 1.0000
  Bi  Bi 0.34043 0.29027 0.63104 1.0000
  Bi  Bi 0.34043 0.29027 0.63104 1.0000
  Bi  Bi 0.33462 0.28737 0.00000 1.0000
  Bi  Bi 0.33462 0.28737 0.00000 1.0000
  Bi  Bi 0.33462 0.28737 0.00000 1.0000
  Bi  Bi 0.33462 0.28737 0.00000 1.0000
  Bi  Bi 0.37606 0.30809 0.36895 1.0000
  Bi  Bi 0.37606 0.30809 0.36895 1.0000
  Bi  Bi 0.36406 0.29027 0.63104 1.0000
  Bi  Bi 0.36406 0.29027 0.63104 1.0000
  Bi  Bi 0.35824 0.28737 0.00000 1.0000
  Bi  Bi 0.35824 0.28737 0.00000 1.0000
  Bi  Bi 0.35824 0.28737 0.00000 1.0000
  Bi  Bi 0.35824 0.28737 0.00000 1.0000
  Bi  Bi 0.39968 0.30809 0.36895 1.0000
  Bi  Bi 0.39968 0.30809 0.36895 1.0000
  Bi  Bi 0.38768 0.29027 0.63104 1.0000
  Bi  Bi 0.38768 0.29027 0.63104 1.0000
  Bi  Bi 0.38187 0.28737 0.00000 1.0000
  Bi  Bi 0.38187 0.28737 0.00000 1.0000
  Bi  Bi 0.38187 0.28737 0.00000 1.0000
  Bi  Bi 0.38187 0.28737 0.00000 1.0000
  Bi  Bi 0.42331 0.30809 0.36895 1.0000
  Bi  Bi 0.42331 0.30809 0.36895 1.0000
  Bi  Bi 0.41131 0.29027 0.63104 1.0000
  Bi  Bi 0.41131 0.29027 0.63104 1.0000
  Bi  Bi 0.40550 0.28737 0.00000 1.0000
  Bi  Bi 0.40550 0.28737 0.00000 1.0000
  Bi  Bi 0.40550 0.28737 0.00000 1.0000
  Bi  Bi 0.40550 0.28737 0.00000 1.0000
  Bi  Bi 0.44694 0.30809 0.36895 1.0000
  Bi  Bi 0.44694 0.30809 0.36895 1.0000
  Bi  Bi 0.43493 0.29027 0.63104 1.0000
  Bi  Bi 0.43493 0.29027 0.63104 1.0000
  Bi  Bi 0.42912 0.28737 0.00000 1.0000
  Bi  Bi 0.42912 0.28737 0.00000 1.0000
  Bi  Bi 0.42912 0.28737 0.00000 1.0000
  Bi  Bi 0.42912 0.28737 0.00000 1.0000
  Bi  Bi 0.47056 0.30809 0.36895 1.0000
  Bi  Bi 0.47056 0.30809 0.36895 1.0000
  Bi  Bi 0.45856 0.29027 0.63104 1.0000
  Bi  Bi 0.45856 0.29027 0.63104 1.0000
  Bi  Bi 0.45275 0.28737 0.00000 1.0000
  Bi  Bi 0.45275 0.28737 0.00000 1.0000
  Bi  Bi 0.45275 0.28737 0.00000 1.0000
  Bi  Bi 0.45275 0.28737 0.00000 1.0000
  Bi  Bi 0.49419 0.30809 0.36895 1.0000
  Bi  Bi 0.49419 0.30809 0.36895 1.0000
  Bi  Bi 0.48219 0.29027 0.63104 1.0000
  Bi  Bi 0.48219 0.29027 0.63104 1.0000
  Bi  Bi 0.47637 0.28737 0.00000 1.0000
  Bi  Bi 0.47637 0.28737 0.00000 1.0000
  Bi  Bi 0.47637 0.28737 0.00000 1.0000
  Bi  Bi 0.47637 0.28737 0.00000 1.0000
  Bi  Bi 0.51781 0.30809 0.36895 1.0000
  Bi  Bi 0.51781 0.30809 0.36895 1.0000
  Bi  Bi 0.50581 0.29027 0.63104 1.0000
  Bi  Bi 0.50581 0.29027 0.63104 1.0000
  Bi  Bi 0.50000 0.28737 0.00000 1.0000
  Bi  Bi 0.50000 0.28737 0.00000 1.0000
  Bi  Bi 0.50000 0.28737 0.00000 1.0000
  Bi  Bi 0.50000 0.28737 0.00000 1.0000
  Bi  Bi 0.54144 0.30809 0.36895 1.0000
  Bi  Bi 0.54144 0.30809 0.36895 1.0000
  Bi  Bi 0.52944 0.29027 0.63104 1.0000
  Bi  Bi 0.52944 0.29027 0.63104 1.0000
  Bi  Bi 0.52363 0.28737 0.00000 1.0000
  Bi  Bi 0.52363 0.28737 0.00000 1.0000
  Bi  Bi 0.52363 0.28737 0.00000 1.0000
  Bi  Bi 0.52363 0.28737 0.00000 1.0000
  Bi  Bi 0.56507 0.30809 0.36895 1.0000
  Bi  Bi 0.56507 0.30809 0.36895 1.0000
  Bi  Bi 0.55306 0.29027 0.63104 1.0000
  Bi  Bi 0.55306 0.29027 0.63104 1.0000
  Bi  Bi 0.54725 0.28737 0.00000 1.0000
  Bi  Bi 0.54725 0.28737 0.00000 1.0000
  Bi  Bi 0.54725 0.28737 0.00000 1.0000
  Bi  Bi 0.54725 0.28737 0.00000 1.0000
  Bi  Bi 0.58869 0.30809 0.36895 1.0000
  Bi  Bi 0.58869 0.30809 0.36895 1.0000
  Bi  Bi 0.57669 0.29027 0.63104 1.0000
  Bi  Bi 0.57669 0.29027 0.63104 1.0000
  Bi  Bi 0.57088 0.28737 0.00000 1.0000
  Bi  Bi 0.57088 0.28737 0.00000 1.0000
  Bi  Bi 0.57088 0.28737 0.00000 1.0000
  Bi  Bi 0.57088 0.28737 0.00000 1.0000
  Bi  Bi 0.61232 0.30809 0.36895 1.0000
  Bi  Bi 0.61232 0.30809 0.36895 1.0000
  Bi  Bi 0.60032 0.29027 0.63104 1.0000
  Bi  Bi 0.60032 0.29027 0.63104 1.0000
  Bi  Bi 0.59450 0.28737 0.00000 1.0000
  Bi  Bi 0.59450 0.28737 0.00000 1.0000
  Bi  Bi 0.59450 0.28737 0.00000 1.0000
  Bi  Bi 0.59450 0.28737 0.00000 1.0000
  Bi  Bi 0.63594 0.30809 0.36895 1.0000
  Bi  Bi 0.63594 0.30809 0.36895 1.0000
  Bi  Bi 0.62394 0.29027 0.63104 1.0000
  Bi  Bi 0.62394 0.29027 0.63104 1.0000
  Bi  Bi 0.61813 0.28737 0.00000 1.0000
  Bi  Bi 0.61813 0.28737 0.00000 1.0000
  Bi  Bi 0.61813 0.28737 0.00000 1.0000
  Bi  Bi 0.61813 0.28737 0.00000 1.0000
  Bi  Bi 0.65957 0.30809 0.36895 1.0000
  Bi  Bi 0.65957 0.30809 0.36895 1.0000
  Bi  Bi 0.64757 0.29027 0.63104 1.0000
  Bi  Bi 0.64757 0.29027 0.63104 1.0000
  Bi  Bi 0.64176 0.28737 0.00000 1.0000
  Bi  Bi 0.64176 0.28737 0.00000 1.0000
  Bi  Bi 0.64176 0.28737 0.00000 1.0000
  Bi  Bi 0.64176 0.28737 0.00000 1.0000
  Bi  Bi 0.68320 0.30809 0.36895 1.0000
  Bi  Bi 0.68320 0.30809 0.36895 1.0000
  Bi  Bi 0.67119 0.29027 0.63104 1.0000
  Bi  Bi 0.67119 0.29027 0.63104 1.0000
  Bi  Bi 0.66538 0.28737 0.00000 1.0000
  Bi  Bi 0.66538 0.28737 0.00000 1.0000
  Bi  Bi 0.66538 0.28737 0.00000 1.0000
  Bi  Bi 0.66538 0.28737 0.00000 1.0000
  Bi  Bi 0.70682 0.30809 0.36895 1.0000
  Bi  Bi 0.70682 0.30809 0.36895 1.0000
  Bi  Bi 0.69482 0.29027 0.63104 1.0000
  Bi  Bi 0.69482 0.29027 0.63104 1.0000
  Bi  Bi 0.68901 0.28737 0.00000 1.0000
  Bi  Bi 0.68901 0.28737 0.00000 1.0000
  Bi  Bi 0.68901 0.28737 0.00000 1.0000
  Bi  Bi 0.68901 0.28737 0.00000 1.0000
  Bi  Bi 0.73045 0.30809 0.36895 1.0000
  Bi  Bi 0.73045 0.30809 0.36895 1.0000
  Bi  Bi 0.71844 0.29027 0.63104 1.0000
  Bi  Bi 0.71844 0.29027 0.63104 1.0000
  Bi  Bi 0.71263 0.28737 0.00000 1.0000
  Bi  Bi 0.71263 0.28737 0.00000 1.0000
  Bi  Bi 0.71263 0.28737 0.00000 1.0000
  Bi  Bi 0.71263 0.28737 0.00000 1.0000
  Bi  Bi 0.75407 0.30809 0.36895 1.0000
  Bi  Bi 0.75407 0.30809 0.36895 1.0000
  Bi  Bi 0.74207 0.29027 0.63104 1.0000
  Bi  Bi 0.74207 0.29027 0.63104 1.0000
  Bi  Bi 0.73626 0.28737 0.00000 1.0000
  Bi  Bi 0.73626 0.28737 0.00000 1.0000
  Bi  Bi 0.73626 0.28737 0.00000 1.0000
  Bi  Bi 0.73626 0.28737 0.00000 1.0000
  Bi  Bi 0.77770 0.30809 0.36895 1.0000
  Bi  Bi 0.77770 0.30809 0.36895 1.0000
  Bi  Bi 0.76570 0.29027 0.63104 1.0000
  Bi  Bi 0.76570 0.29027 0.63104 1.0000
  Bi  Bi 0.75989 0.28737 0.00000 1.0000
  Bi  Bi 0.75989 0.28737 0.00000 1.0000
  Bi  Bi 0.75989 0.28737 0.00000 1.0000
  Bi  Bi 0.75989 0.28737 0.00000 1.0000
  Bi  Bi 0.80133 0.30809 0.36895 1.0000
  Bi  Bi 0.80133 0.30809 0.36895 1.0000
  Bi  Bi 0.78932 0.29027 0.63104 1.0000
  Bi  Bi 0.78932 0.29027 0.63104 1.0000
  Bi  Bi 0.78351 0.28737 0.00000 1.0000
  Bi  Bi 0.78351 0.28737 0.00000 1.0000
  Bi  Bi 0.78351 0.28737 0.00000 1.0000
  Bi  Bi 0.78351 0.28737 0.00000 1.0000
  Bi  Bi 0.82495 0.30809 0.36895 1.0000
  Bi  Bi 0.82495 0.30809 0.36895 1.0000
  Bi  Bi 0.81295 0.29027 0.63104 1.0000
  Bi  Bi 0.81295 0.29027 0.63104 1.0000
  Bi  Bi 0.80714 0.28737 0.00000 1.0000
  Bi  Bi 0.80714 0.28737 0.00000 1.0000
  Bi  Bi 0.80714 0.28737 0.00000 1.0000
  Bi  Bi 0.80714 0.28737 0.00000 1.0000
  Bi  Bi 0.84858 0.30809 0.36895 1.0000
  Bi  Bi 0.84858 0.30809 0.36895 1.0000
  Bi  Bi 0.83657 0.29027 0.63104 1.0000
  Bi  Bi 0.83657 0.29027 0.63104 1.0000
  Bi  Bi 0.83076 0.28737 0.00000 1.0000
  Bi  Bi 0.83076 0.28737 0.00000 1.0000
  Bi  Bi 0.83076 0.28737 0.00000 1.0000
  Bi  Bi 0.83076 0.28737 0.00000 1.0000
  Bi  Bi 0.87220 0.30809 0.36895 1.0000
  Bi  Bi 0.87220 0.30809 0.36895 1.0000
  Bi  Bi 0.86020 0.29027 0.63104 1.0000
  Bi  Bi 0.86020 0.29027 0.63104 1.0000
  Bi  Bi 0.85439 0.28737 0.00000 1.0000
  Bi  Bi 0.85439 0.28737 0.00000 1.0000
  Bi  Bi 0.85439 0.28737 0.00000 1.0000
  Bi  Bi 0.85439 0.28737 0.00000 1.0000
  Bi  Bi 0.89583 0.30809 0.36895 1.0000
  Bi  Bi 0.89583 0.30809 0.36895 1.0000
  Bi  Bi 0.88383 0.29027 0.63104 1.0000
  Bi  Bi 0.88383 0.29027 0.63104 1.0000
  Bi  Bi 0.87802 0.28737 0.00000 1.0000
  Bi  Bi 0.87802 0.28737 0.00000 1.0000
  Bi  Bi 0.87802 0.28737 0.00000 1.0000
  Bi  Bi 0.87802 0.28737 0.00000 1.0000
  Bi  Bi 0.91946 0.30809 0.36895 1.0000
  Bi  Bi 0.91946 0.30809 0.36895 1.0000
  Bi  Bi 0.90745 0.29027 0.63104 1.0000
  Bi  Bi 0.90745 0.29027 0.63104 1.0000
  Bi  Bi 0.90164 0.28737 0.00000 1.0000
  Bi  Bi 0.90164 0.28737 0.00000 1.0000
  Bi  Bi 0.90164 0.28737 0.00000 1.0000
  Bi  Bi 0.90164 0.28737 0.00000 1.0000
  Bi  Bi 0.94308 0.30809 0.36895 1.0000
  Bi  Bi 0.94308 0.30809 0.36895 1.0000
  Bi  Bi 0.93108 0.29027 0.63104 1.0000
  Bi  Bi 0.93108 0.29027 0.63104 1.0000
  Bi  Bi 0.92527 0.28737 0.00000 1.0000
  Bi  Bi 0.92527 0.28737 0.00000 1.0000
  Bi  Bi 0.92527 0.28737 0.00000 1.0000
  Bi  Bi 0.92527 0.28737 0.00000 1.0000
  Bi  Bi 0.96671 0.30809 0.36895 1.0000
  Bi  Bi 0.96671 0.30809 0.36895 1.0000
  Bi  Bi 0.95470 0.29027 0.63104 1.0000
  Bi  Bi 0.95470 0.29027 0.63104 1.0000
  Bi  Bi 0.94889 0.28737 0.00000 1.0000
  Bi  Bi 0.94889 0.28737 0.00000 1.0000
  Bi  Bi 0.94889 0.28737 0.00000 1.0000
  Bi  Bi 0.94889 0.28737 0.00000 1.0000
  Bi  Bi 0.04530 0.33171 0.36895 1.0000
  Bi  Bi 0.04530 0.33171 0.36895 1.0000
  Bi  Bi 0.03329 0.31390 0.63104 1.0000
  Bi  Bi 0.03329 0.31390 0.63104 1.0000
  Bi  Bi 0.02748 0.31099 0.00000 1.0000
  Bi  Bi 0.02748 0.31099 0.00000 1.0000
  Bi  Bi 0.02748 0.31099 0.00000 1.0000
  Bi  Bi 0.02748 0.31099 0.00000 1.0000
  Bi  Bi 0.06892 0.33171 0.36895 1.0000
  Bi  Bi 0.06892 0.33171 0.36895 1.0000
  Bi  Bi 0.05692 0.31390 0.63104 1.0000
  Bi  Bi 0.05692 0.31390 0.63104 1.0000
  Bi  Bi 0.05111 0.31099 0.00000 1.0000
  Bi  Bi 0.05111 0.31099 0.00000 1.0000
  Bi  Bi 0.05111 0.31099 0.00000 1.0000
  Bi  Bi 0.05111 0.31099 0.00000 1.0000
  Bi  Bi 0.09255 0.33171 0.36895 1.0000
  Bi  Bi 0.09255 0.33171 0.36895 1.0000
  Bi  Bi 0.08054 0.31390 0.63104 1.0000
  Bi  Bi 0.08054 0.31390 0.63104 1.0000
  Bi  Bi 0.07473 0.31099 0.00000 1.0000
  Bi  Bi 0.07473 0.31099 0.00000 1.0000
  Bi  Bi 0.07473 0.31099 0.00000 1.0000
  Bi  Bi 0.07473 0.31099 0.00000 1.0000
  Bi  Bi 0.11617 0.33171 0.36895 1.0000
  Bi  Bi 0.11617 0.33171 0.36895 1.0000
  Bi  Bi 0.10417 0.31390 0.63104 1.0000
  Bi  Bi 0.10417 0.31390 0.63104 1.0000
  Bi  Bi 0.09836 0.31099 0.00000 1.0000
  Bi  Bi 0.09836 0.31099 0.00000 1.0000
  Bi  Bi 0.09836 0.31099 0.00000 1.0000
  Bi  Bi 0.09836 0.31099 0.00000 1.0000
  Bi  Bi 0.13980 0.33171 0.36895 1.0000
  Bi  Bi 0.13980 0.33171 0.36895 1.0000
  Bi  Bi 0.12780 0.31390 0.63104 1.0000
  Bi  Bi 0.12780 0.31390 0.63104 1.0000
  Bi  Bi 0.12198 0.31099 0.00000 1.0000
  Bi  Bi 0.12198 0.31099 0.00000 1.0000
  Bi  Bi 0.12198 0.31099 0.00000 1.0000
  Bi  Bi 0.12198 0.31099 0.00000 1.0000
  Bi  Bi 0.16343 0.33171 0.36895 1.0000
  Bi  Bi 0.16343 0.33171 0.36895 1.0000
  Bi  Bi 0.15142 0.31390 0.63104 1.0000
  Bi  Bi 0.15142 0.31390 0.63104 1.0000
  Bi  Bi 0.14561 0.31099 0.00000 1.0000
  Bi  Bi 0.14561 0.31099 0.00000 1.0000
  Bi  Bi 0.14561 0.31099 0.00000 1.0000
  Bi  Bi 0.14561 0.31099 0.00000 1.0000
  Bi  Bi 0.18705 0.33171 0.36895 1.0000
  Bi  Bi 0.18705 0.33171 0.36895 1.0000
  Bi  Bi 0.17505 0.31390 0.63104 1.0000
  Bi  Bi 0.17505 0.31390 0.63104 1.0000
  Bi  Bi 0.16924 0.31099 0.00000 1.0000
  Bi  Bi 0.16924 0.31099 0.00000 1.0000
  Bi  Bi 0.16924 0.31099 0.00000 1.0000
  Bi  Bi 0.16924 0.31099 0.00000 1.0000
  Bi  Bi 0.21068 0.33171 0.36895 1.0000
  Bi  Bi 0.21068 0.33171 0.36895 1.0000
  Bi  Bi 0.19867 0.31390 0.63104 1.0000
  Bi  Bi 0.19867 0.31390 0.63104 1.0000
  Bi  Bi 0.19286 0.31099 0.00000 1.0000
  Bi  Bi 0.19286 0.31099 0.00000 1.0000
  Bi  Bi 0.19286 0.31099 0.00000 1.0000
  Bi  Bi 0.19286 0.31099 0.00000 1.0000
  Bi  Bi 0.23430 0.33171 0.36895 1.0000
  Bi  Bi 0.23430 0.33171 0.36895 1.0000
  Bi  Bi 0.22230 0.31390 0.63104 1.0000
  Bi  Bi 0.22230 0.31390 0.63104 1.0000
  Bi  Bi 0.21649 0.31099 0.00000 1.0000
  Bi  Bi 0.21649 0.31099 0.00000 1.0000
  Bi  Bi 0.21649 0.31099 0.00000 1.0000
  Bi  Bi 0.21649 0.31099 0.00000 1.0000
  Bi  Bi 0.25793 0.33171 0.36895 1.0000
  Bi  Bi 0.25793 0.33171 0.36895 1.0000
  Bi  Bi 0.24593 0.31390 0.63104 1.0000
  Bi  Bi 0.24593 0.31390 0.63104 1.0000
  Bi  Bi 0.24011 0.31099 0.00000 1.0000
  Bi  Bi 0.24011 0.31099 0.00000 1.0000
  Bi  Bi 0.24011 0.31099 0.00000 1.0000
  Bi  Bi 0.24011 0.31099 0.00000 1.0000
  Bi  Bi 0.28156 0.33171 0.36895 1.0000
  Bi  Bi 0.28156 0.33171 0.36895 1.0000
  Bi  Bi 0.26955 0.31390 0.63104 1.0000
  Bi  Bi 0.26955 0.31390 0.63104 1.0000
  Bi  Bi 0.26374 0.31099 0.00000 1.0000
  Bi  Bi 0.26374 0.31099 0.00000 1.0000
  Bi  Bi 0.26374 0.31099 0.00000 1.0000
  Bi  Bi 0.26374 0.31099 0.00000 1.0000
  Bi  Bi 0.30518 0.33171 0.36895 1.0000
  Bi  Bi 0.30518 0.33171 0.36895 1.0000
  Bi  Bi 0.29318 0.31390 0.63104 1.0000
  Bi  Bi 0.29318 0.31390 0.63104 1.0000
  Bi  Bi 0.28737 0.31099 0.00000 1.0000
  Bi  Bi 0.28737 0.31099 0.00000 1.0000
  Bi  Bi 0.28737 0.31099 0.00000 1.0000
  Bi  Bi 0.28737 0.31099 0.00000 1.0000
  Bi  Bi 0.32881 0.33171 0.36895 1.0000
  Bi  Bi 0.32881 0.33171 0.36895 1.0000
  Bi  Bi 0.31680 0.31390 0.63104 1.0000
  Bi  Bi 0.31680 0.31390 0.63104 1.0000
  Bi  Bi 0.31099 0.31099 0.00000 1.0000
  Bi  Bi 0.31099 0.31099 0.00000 1.0000
  Bi  Bi 0.31099 0.31099 0.00000 1.0000
  Bi  Bi 0.31099 0.31099 0.00000 1.0000
  Bi  Bi 0.35243 0.33171 0.36895 1.0000
  Bi  Bi 0.35243 0.33171 0.36895 1.0000
  Bi  Bi 0.34043 0.31390 0.63104 1.0000
  Bi  Bi 0.34043 0.31390 0.63104 1.0000
  Bi  Bi 0.33462 0.31099 0.00000 1.0000
  Bi  Bi 0.33462 0.31099 0.00000 1.0000
  Bi  Bi 0.33462 0.31099 0.00000 1.0000
  Bi  Bi 0.33462 0.31099 0.00000 1.0000
  Bi  Bi 0.37606 0.33171 0.36895 1.0000
  Bi  Bi 0.37606 0.33171 0.36895 1.0000
  Bi  Bi 0.36406 0.31390 0.63104 1.0000
  Bi  Bi 0.36406 0.31390 0.63104 1.0000
  Bi  Bi 0.35824 0.31099 0.00000 1.0000
  Bi  Bi 0.35824 0.31099 0.00000 1.0000
  Bi  Bi 0.35824 0.31099 0.00000 1.0000
  Bi  Bi 0.35824 0.31099 0.00000 1.0000
  Bi  Bi 0.39968 0.33171 0.36895 1.0000
  Bi  Bi 0.39968 0.33171 0.36895 1.0000
  Bi  Bi 0.38768 0.31390 0.63104 1.0000
  Bi  Bi 0.38768 0.31390 0.63104 1.0000
  Bi  Bi 0.38187 0.31099 0.00000 1.0000
  Bi  Bi 0.38187 0.31099 0.00000 1.0000
  Bi  Bi 0.38187 0.31099 0.00000 1.0000
  Bi  Bi 0.38187 0.31099 0.00000 1.0000
  Bi  Bi 0.42331 0.33171 0.36895 1.0000
  Bi  Bi 0.42331 0.33171 0.36895 1.0000
  Bi  Bi 0.41131 0.31390 0.63104 1.0000
  Bi  Bi 0.41131 0.31390 0.63104 1.0000
  Bi  Bi 0.40550 0.31099 0.00000 1.0000
  Bi  Bi 0.40550 0.31099 0.00000 1.0000
  Bi  Bi 0.40550 0.31099 0.00000 1.0000
  Bi  Bi 0.40550 0.31099 0.00000 1.0000
  Bi  Bi 0.44694 0.33171 0.36895 1.0000
  Bi  Bi 0.44694 0.33171 0.36895 1.0000
  Bi  Bi 0.43493 0.31390 0.63104 1.0000
  Bi  Bi 0.43493 0.31390 0.63104 1.0000
  Bi  Bi 0.42912 0.31099 0.00000 1.0000
  Bi  Bi 0.42912 0.31099 0.00000 1.0000
  Bi  Bi 0.42912 0.31099 0.00000 1.0000
  Bi  Bi 0.42912 0.31099 0.00000 1.0000
  Bi  Bi 0.47056 0.33171 0.36895 1.0000
  Bi  Bi 0.47056 0.33171 0.36895 1.0000
  Bi  Bi 0.45856 0.31390 0.63104 1.0000
  Bi  Bi 0.45856 0.31390 0.63104 1.0000
  Bi  Bi 0.45275 0.31099 0.00000 1.0000
  Bi  Bi 0.45275 0.31099 0.00000 1.0000
  Bi  Bi 0.45275 0.31099 0.00000 1.0000
  Bi  Bi 0.45275 0.31099 0.00000 1.0000
  Bi  Bi 0.49419 0.33171 0.36895 1.0000
  Bi  Bi 0.49419 0.33171 0.36895 1.0000
  Bi  Bi 0.48219 0.31390 0.63104 1.0000
  Bi  Bi 0.48219 0.31390 0.63104 1.0000
  Bi  Bi 0.47637 0.31099 0.00000 1.0000
  Bi  Bi 0.47637 0.31099 0.00000 1.0000
  Bi  Bi 0.47637 0.31099 0.00000 1.0000
  Bi  Bi 0.47637 0.31099 0.00000 1.0000
  Bi  Bi 0.51781 0.33171 0.36895 1.0000
  Bi  Bi 0.51781 0.33171 0.36895 1.0000
  Bi  Bi 0.50581 0.31390 0.63104 1.0000
  Bi  Bi 0.50581 0.31390 0.63104 1.0000
  Bi  Bi 0.50000 0.31099 0.00000 1.0000
  Bi  Bi 0.50000 0.31099 0.00000 1.0000
  Bi  Bi 0.50000 0.31099 0.00000 1.0000
  Bi  Bi 0.50000 0.31099 0.00000 1.0000
  Bi  Bi 0.54144 0.33171 0.36895 1.0000
  Bi  Bi 0.54144 0.33171 0.36895 1.0000
  Bi  Bi 0.52944 0.31390 0.63104 1.0000
  Bi  Bi 0.52944 0.31390 0.63104 1.0000
  Bi  Bi 0.52363 0.31099 0.00000 1.0000
  Bi  Bi 0.52363 0.31099 0.00000 1.0000
  Bi  Bi 0.52363 0.31099 0.00000 1.0000
  Bi  Bi 0.52363 0.31099 0.00000 1.0000
  Bi  Bi 0.56507 0.33171 0.36895 1.0000
  Bi  Bi 0.56507 0.33171 0.36895 1.0000
  Bi  Bi 0.55306 0.31390 0.63104 1.0000
  Bi  Bi 0.55306 0.31390 0.63104 1.0000
  Bi  Bi 0.54725 0.31099 0.00000 1.0000
  Bi  Bi 0.54725 0.31099 0.00000 1.0000
  Bi  Bi 0.54725 0.31099 0.00000 1.0000
  Bi  Bi 0.54725 0.31099 0.00000 1.0000
  Bi  Bi 0.58869 0.33171 0.36895 1.0000
  Bi  Bi 0.58869 0.33171 0.36895 1.0000
  Bi  Bi 0.57669 0.31390 0.63104 1.0000
  Bi  Bi 0.57669 0.31390 0.63104 1.0000
  Bi  Bi 0.57088 0.31099 0.00000 1.0000
  Bi  Bi 0.57088 0.31099 0.00000 1.0000
  Bi  Bi 0.57088 0.31099 0.00000 1.0000
  Bi  Bi 0.57088 0.31099 0.00000 1.0000
  Bi  Bi 0.61232 0.33171 0.36895 1.0000
  Bi  Bi 0.61232 0.33171 0.36895 1.0000
  Bi  Bi 0.60032 0.31390 0.63104 1.0000
  Bi  Bi 0.60032 0.31390 0.63104 1.0000
  Bi  Bi 0.59450 0.31099 0.00000 1.0000
  Bi  Bi 0.59450 0.31099 0.00000 1.0000
  Bi  Bi 0.59450 0.31099 0.00000 1.0000
  Bi  Bi 0.59450 0.31099 0.00000 1.0000
  Bi  Bi 0.63594 0.33171 0.36895 1.0000
  Bi  Bi 0.63594 0.33171 0.36895 1.0000
  Bi  Bi 0.62394 0.31390 0.63104 1.0000
  Bi  Bi 0.62394 0.31390 0.63104 1.0000
  Bi  Bi 0.61813 0.31099 0.00000 1.0000
  Bi  Bi 0.61813 0.31099 0.00000 1.0000
  Bi  Bi 0.61813 0.31099 0.00000 1.0000
  Bi  Bi 0.61813 0.31099 0.00000 1.0000
  Bi  Bi 0.65957 0.33171 0.36895 1.0000
  Bi  Bi 0.65957 0.33171 0.36895 1.0000
  Bi  Bi 0.64757 0.31390 0.63104 1.0000
  Bi  Bi 0.64757 0.31390 0.63104 1.0000
  Bi  Bi 0.64176 0.31099 0.00000 1.0000
  Bi  Bi 0.64176 0.31099 0.00000 1.0000
  Bi  Bi 0.64176 0.31099 0.00000 1.0000
  Bi  Bi 0.64176 0.31099 0.00000 1.0000
  Bi  Bi 0.68320 0.33171 0.36895 1.0000
  Bi  Bi 0.68320 0.33171 0.36895 1.0000
  Bi  Bi 0.67119 0.31390 0.63104 1.0000
  Bi  Bi 0.67119 0.31390 0.63104 1.0000
  Bi  Bi 0.66538 0.31099 0.00000 1.0000
  Bi  Bi 0.66538 0.31099 0.00000 1.0000
  Bi  Bi 0.66538 0.31099 0.00000 1.0000
  Bi  Bi 0.66538 0.31099 0.00000 1.0000
  Bi  Bi 0.70682 0.33171 0.36895 1.0000
  Bi  Bi 0.70682 0.33171 0.36895 1.0000
  Bi  Bi 0.69482 0.31390 0.63104 1.0000
  Bi  Bi 0.69482 0.31390 0.63104 1.0000
  Bi  Bi 0.68901 0.31099 0.00000 1.0000
  Bi  Bi 0.68901 0.31099 0.00000 1.0000
  Bi  Bi 0.68901 0.31099 0.00000 1.0000
  Bi  Bi 0.68901 0.31099 0.00000 1.0000
  Bi  Bi 0.73045 0.33171 0.36895 1.0000
  Bi  Bi 0.73045 0.33171 0.36895 1.0000
  Bi  Bi 0.71844 0.31390 0.63104 1.0000
  Bi  Bi 0.71844 0.31390 0.63104 1.0000
  Bi  Bi 0.71263 0.31099 0.00000 1.0000
  Bi  Bi 0.71263 0.31099 0.00000 1.0000
  Bi  Bi 0.71263 0.31099 0.00000 1.0000
  Bi  Bi 0.71263 0.31099 0.00000 1.0000
  Bi  Bi 0.75407 0.33171 0.36895 1.0000
  Bi  Bi 0.75407 0.33171 0.36895 1.0000
  Bi  Bi 0.74207 0.31390 0.63104 1.0000
  Bi  Bi 0.74207 0.31390 0.63104 1.0000
  Bi  Bi 0.73626 0.31099 0.00000 1.0000
  Bi  Bi 0.73626 0.31099 0.00000 1.0000
  Bi  Bi 0.73626 0.31099 0.00000 1.0000
  Bi  Bi 0.73626 0.31099 0.00000 1.0000
  Bi  Bi 0.77770 0.33171 0.36895 1.0000
  Bi  Bi 0.77770 0.33171 0.36895 1.0000
  Bi  Bi 0.76570 0.31390 0.63104 1.0000
  Bi  Bi 0.76570 0.31390 0.63104 1.0000
  Bi  Bi 0.75989 0.31099 0.00000 1.0000
  Bi  Bi 0.75989 0.31099 0.00000 1.0000
  Bi  Bi 0.75989 0.31099 0.00000 1.0000
  Bi  Bi 0.75989 0.31099 0.00000 1.0000
  Bi  Bi 0.80133 0.33171 0.36895 1.0000
  Bi  Bi 0.80133 0.33171 0.36895 1.0000
  Bi  Bi 0.78932 0.31390 0.63104 1.0000
  Bi  Bi 0.78932 0.31390 0.63104 1.0000
  Bi  Bi 0.78351 0.31099 0.00000 1.0000
  Bi  Bi 0.78351 0.31099 0.00000 1.0000
  Bi  Bi 0.78351 0.31099 0.00000 1.0000
  Bi  Bi 0.78351 0.31099 0.00000 1.0000
  Bi  Bi 0.82495 0.33171 0.36895 1.0000
  Bi  Bi 0.82495 0.33171 0.36895 1.0000
  Bi  Bi 0.81295 0.31390 0.63104 1.0000
  Bi  Bi 0.81295 0.31390 0.63104 1.0000
  Bi  Bi 0.80714 0.31099 0.00000 1.0000
  Bi  Bi 0.80714 0.31099 0.00000 1.0000
  Bi  Bi 0.80714 0.31099 0.00000 1.0000
  Bi  Bi 0.80714 0.31099 0.00000 1.0000
  Bi  Bi 0.84858 0.33171 0.36895 1.0000
  Bi  Bi 0.84858 0.33171 0.36895 1.0000
  Bi  Bi 0.83657 0.31390 0.63104 1.0000
  Bi  Bi 0.83657 0.31390 0.63104 1.0000
  Bi  Bi 0.83076 0.31099 0.00000 1.0000
  Bi  Bi 0.83076 0.31099 0.00000 1.0000
  Bi  Bi 0.83076 0.31099 0.00000 1.0000
  Bi  Bi 0.83076 0.31099 0.00000 1.0000
  Bi  Bi 0.87220 0.33171 0.36895 1.0000
  Bi  Bi 0.87220 0.33171 0.36895 1.0000
  Bi  Bi 0.86020 0.31390 0.63104 1.0000
  Bi  Bi 0.86020 0.31390 0.63104 1.0000
  Bi  Bi 0.85439 0.31099 0.00000 1.0000
  Bi  Bi 0.85439 0.31099 0.00000 1.0000
  Bi  Bi 0.85439 0.31099 0.00000 1.0000
  Bi  Bi 0.85439 0.31099 0.00000 1.0000
  Bi  Bi 0.89583 0.33171 0.36895 1.0000
  Bi  Bi 0.89583 0.33171 0.36895 1.0000
  Bi  Bi 0.88383 0.31390 0.63104 1.0000
  Bi  Bi 0.88383 0.31390 0.63104 1.0000
  Bi  Bi 0.87802 0.31099 0.00000 1.0000
  Bi  Bi 0.87802 0.31099 0.00000 1.0000
  Bi  Bi 0.87802 0.31099 0.00000 1.0000
  Bi  Bi 0.87802 0.31099 0.00000 1.0000
  Bi  Bi 0.91946 0.33171 0.36895 1.0000
  Bi  Bi 0.91946 0.33171 0.36895 1.0000
  Bi  Bi 0.90745 0.31390 0.63104 1.0000
  Bi  Bi 0.90745 0.31390 0.63104 1.0000
  Bi  Bi 0.90164 0.31099 0.00000 1.0000
  Bi  Bi 0.90164 0.31099 0.00000 1.0000
  Bi  Bi 0.90164 0.31099 0.00000 1.0000
  Bi  Bi 0.90164 0.31099 0.00000 1.0000
  Bi  Bi 0.94308 0.33171 0.36895 1.0000
  Bi  Bi 0.94308 0.33171 0.36895 1.0000
  Bi  Bi 0.93108 0.31390 0.63104 1.0000
  Bi  Bi 0.93108 0.31390 0.63104 1.0000
  Bi  Bi 0.92527 0.31099 0.00000 1.0000
  Bi  Bi 0.92527 0.31099 0.00000 1.0000
  Bi  Bi 0.92527 0.31099 0.00000 1.0000
  Bi  Bi 0.92527 0.31099 0.00000 1.0000
  Bi  Bi 0.96671 0.33171 0.36895 1.0000
  Bi  Bi 0.96671 0.33171 0.36895 1.0000
  Bi  Bi 0.95470 0.31390 0.63104 1.0000
  Bi  Bi 0.95470 0.31390 0.63104 1.0000
  Bi  Bi 0.94889 0.31099 0.00000 1.0000
  Bi  Bi 0.94889 0.31099 0.00000 1.0000
  Bi  Bi 0.94889 0.31099 0.00000 1.0000
  Bi  Bi 0.94889 0.31099 0.00000 1.0000
  Bi  Bi 0.04530 0.35534 0.36895 1.0000
  Bi  Bi 0.04530 0.35534 0.36895 1.0000
  Bi  Bi 0.03329 0.33752 0.63104 1.0000
  Bi  Bi 0.03329 0.33752 0.63104 1.0000
  Bi  Bi 0.02748 0.33462 0.00000 1.0000
  Bi  Bi 0.02748 0.33462 0.00000 1.0000
  Bi  Bi 0.02748 0.33462 0.00000 1.0000
  Bi  Bi 0.02748 0.33462 0.00000 1.0000
  Bi  Bi 0.06892 0.35534 0.36895 1.0000
  Bi  Bi 0.06892 0.35534 0.36895 1.0000
  Bi  Bi 0.05692 0.33752 0.63104 1.0000
  Bi  Bi 0.05692 0.33752 0.63104 1.0000
  Bi  Bi 0.05111 0.33462 0.00000 1.0000
  Bi  Bi 0.05111 0.33462 0.00000 1.0000
  Bi  Bi 0.05111 0.33462 0.00000 1.0000
  Bi  Bi 0.05111 0.33462 0.00000 1.0000
  Bi  Bi 0.09255 0.35534 0.36895 1.0000
  Bi  Bi 0.09255 0.35534 0.36895 1.0000
  Bi  Bi 0.08054 0.33752 0.63104 1.0000
  Bi  Bi 0.08054 0.33752 0.63104 1.0000
  Bi  Bi 0.07473 0.33462 0.00000 1.0000
  Bi  Bi 0.07473 0.33462 0.00000 1.0000
  Bi  Bi 0.07473 0.33462 0.00000 1.0000
  Bi  Bi 0.07473 0.33462 0.00000 1.0000
  Bi  Bi 0.11617 0.35534 0.36895 1.0000
  Bi  Bi 0.11617 0.35534 0.36895 1.0000
  Bi  Bi 0.10417 0.33752 0.63104 1.0000
  Bi  Bi 0.10417 0.33752 0.63104 1.0000
  Bi  Bi 0.09836 0.33462 0.00000 1.0000
  Bi  Bi 0.09836 0.33462 0.00000 1.0000
  Bi  Bi 0.09836 0.33462 0.00000 1.0000
  Bi  Bi 0.09836 0.33462 0.00000 1.0000
  Bi  Bi 0.13980 0.35534 0.36895 1.0000
  Bi  Bi 0.13980 0.35534 0.36895 1.0000
  Bi  Bi 0.12780 0.33752 0.63104 1.0000
  Bi  Bi 0.12780 0.33752 0.63104 1.0000
  Bi  Bi 0.12198 0.33462 0.00000 1.0000
  Bi  Bi 0.12198 0.33462 0.00000 1.0000
  Bi  Bi 0.12198 0.33462 0.00000 1.0000
  Bi  Bi 0.12198 0.33462 0.00000 1.0000
  Bi  Bi 0.16343 0.35534 0.36895 1.0000
  Bi  Bi 0.16343 0.35534 0.36895 1.0000
  Bi  Bi 0.15142 0.33752 0.63104 1.0000
  Bi  Bi 0.15142 0.33752 0.63104 1.0000
  Bi  Bi 0.14561 0.33462 0.00000 1.0000
  Bi  Bi 0.14561 0.33462 0.00000 1.0000
  Bi  Bi 0.14561 0.33462 0.00000 1.0000
  Bi  Bi 0.14561 0.33462 0.00000 1.0000
  Bi  Bi 0.18705 0.35534 0.36895 1.0000
  Bi  Bi 0.18705 0.35534 0.36895 1.0000
  Bi  Bi 0.17505 0.33752 0.63104 1.0000
  Bi  Bi 0.17505 0.33752 0.63104 1.0000
  Bi  Bi 0.16924 0.33462 0.00000 1.0000
  Bi  Bi 0.16924 0.33462 0.00000 1.0000
  Bi  Bi 0.16924 0.33462 0.00000 1.0000
  Bi  Bi 0.16924 0.33462 0.00000 1.0000
  Bi  Bi 0.21068 0.35534 0.36895 1.0000
  Bi  Bi 0.21068 0.35534 0.36895 1.0000
  Bi  Bi 0.19867 0.33752 0.63104 1.0000
  Bi  Bi 0.19867 0.33752 0.63104 1.0000
  Bi  Bi 0.19286 0.33462 0.00000 1.0000
  Bi  Bi 0.19286 0.33462 0.00000 1.0000
  Bi  Bi 0.19286 0.33462 0.00000 1.0000
  Bi  Bi 0.19286 0.33462 0.00000 1.0000
  Bi  Bi 0.23430 0.35534 0.36895 1.0000
  Bi  Bi 0.23430 0.35534 0.36895 1.0000
  Bi  Bi 0.22230 0.33752 0.63104 1.0000
  Bi  Bi 0.22230 0.33752 0.63104 1.0000
  Bi  Bi 0.21649 0.33462 0.00000 1.0000
  Bi  Bi 0.21649 0.33462 0.00000 1.0000
  Bi  Bi 0.21649 0.33462 0.00000 1.0000
  Bi  Bi 0.21649 0.33462 0.00000 1.0000
  Bi  Bi 0.25793 0.35534 0.36895 1.0000
  Bi  Bi 0.25793 0.35534 0.36895 1.0000
  Bi  Bi 0.24593 0.33752 0.63104 1.0000
  Bi  Bi 0.24593 0.33752 0.63104 1.0000
  Bi  Bi 0.24011 0.33462 0.00000 1.0000
  Bi  Bi 0.24011 0.33462 0.00000 1.0000
  Bi  Bi 0.24011 0.33462 0.00000 1.0000
  Bi  Bi 0.24011 0.33462 0.00000 1.0000
  Bi  Bi 0.28156 0.35534 0.36895 1.0000
  Bi  Bi 0.28156 0.35534 0.36895 1.0000
  Bi  Bi 0.26955 0.33752 0.63104 1.0000
  Bi  Bi 0.26955 0.33752 0.63104 1.0000
  Bi  Bi 0.26374 0.33462 0.00000 1.0000
  Bi  Bi 0.26374 0.33462 0.00000 1.0000
  Bi  Bi 0.26374 0.33462 0.00000 1.0000
  Bi  Bi 0.26374 0.33462 0.00000 1.0000
  Bi  Bi 0.30518 0.35534 0.36895 1.0000
  Bi  Bi 0.30518 0.35534 0.36895 1.0000
  Bi  Bi 0.29318 0.33752 0.63104 1.0000
  Bi  Bi 0.29318 0.33752 0.63104 1.0000
  Bi  Bi 0.28737 0.33462 0.00000 1.0000
  Bi  Bi 0.28737 0.33462 0.00000 1.0000
  Bi  Bi 0.28737 0.33462 0.00000 1.0000
  Bi  Bi 0.28737 0.33462 0.00000 1.0000
  Bi  Bi 0.32881 0.35534 0.36895 1.0000
  Bi  Bi 0.32881 0.35534 0.36895 1.0000
  Bi  Bi 0.31680 0.33752 0.63104 1.0000
  Bi  Bi 0.31680 0.33752 0.63104 1.0000
  Bi  Bi 0.31099 0.33462 0.00000 1.0000
  Bi  Bi 0.31099 0.33462 0.00000 1.0000
  Bi  Bi 0.31099 0.33462 0.00000 1.0000
  Bi  Bi 0.31099 0.33462 0.00000 1.0000
  Bi  Bi 0.35243 0.35534 0.36895 1.0000
  Bi  Bi 0.35243 0.35534 0.36895 1.0000
  Bi  Bi 0.34043 0.33752 0.63104 1.0000
  Bi  Bi 0.34043 0.33752 0.63104 1.0000
  Bi  Bi 0.33462 0.33462 0.00000 1.0000
  Bi  Bi 0.33462 0.33462 0.00000 1.0000
  Bi  Bi 0.33462 0.33462 0.00000 1.0000
  Bi  Bi 0.33462 0.33462 0.00000 1.0000
  Bi  Bi 0.37606 0.35534 0.36895 1.0000
  Bi  Bi 0.37606 0.35534 0.36895 1.0000
  Bi  Bi 0.36406 0.33752 0.63104 1.0000
  Bi  Bi 0.36406 0.33752 0.63104 1.0000
  Bi  Bi 0.35824 0.33462 0.00000 1.0000
  Bi  Bi 0.35824 0.33462 0.00000 1.0000
  Bi  Bi 0.35824 0.33462 0.00000 1.0000
  Bi  Bi 0.35824 0.33462 0.00000 1.0000
  Bi  Bi 0.39968 0.35534 0.36895 1.0000
  Bi  Bi 0.39968 0.35534 0.36895 1.0000
  Bi  Bi 0.38768 0.33752 0.63104 1.0000
  Bi  Bi 0.38768 0.33752 0.63104 1.0000
  Bi  Bi 0.38187 0.33462 0.00000 1.0000
  Bi  Bi 0.38187 0.33462 0.00000 1.0000
  Bi  Bi 0.38187 0.33462 0.00000 1.0000
  Bi  Bi 0.38187 0.33462 0.00000 1.0000
  Bi  Bi 0.42331 0.35534 0.36895 1.0000
  Bi  Bi 0.42331 0.35534 0.36895 1.0000
  Bi  Bi 0.41131 0.33752 0.63104 1.0000
  Bi  Bi 0.41131 0.33752 0.63104 1.0000
  Bi  Bi 0.40550 0.33462 0.00000 1.0000
  Bi  Bi 0.40550 0.33462 0.00000 1.0000
  Bi  Bi 0.40550 0.33462 0.00000 1.0000
  Bi  Bi 0.40550 0.33462 0.00000 1.0000
  Bi  Bi 0.44694 0.35534 0.36895 1.0000
  Bi  Bi 0.44694 0.35534 0.36895 1.0000
  Bi  Bi 0.43493 0.33752 0.63104 1.0000
  Bi  Bi 0.43493 0.33752 0.63104 1.0000
  Bi  Bi 0.42912 0.33462 0.00000 1.0000
  Bi  Bi 0.42912 0.33462 0.00000 1.0000
  Bi  Bi 0.42912 0.33462 0.00000 1.0000
  Bi  Bi 0.42912 0.33462 0.00000 1.0000
  Bi  Bi 0.47056 0.35534 0.36895 1.0000
  Bi  Bi 0.47056 0.35534 0.36895 1.0000
  Bi  Bi 0.45856 0.33752 0.63104 1.0000
  Bi  Bi 0.45856 0.33752 0.63104 1.0000
  Bi  Bi 0.45275 0.33462 0.00000 1.0000
  Bi  Bi 0.45275 0.33462 0.00000 1.0000
  Bi  Bi 0.45275 0.33462 0.00000 1.0000
  Bi  Bi 0.45275 0.33462 0.00000 1.0000
  Bi  Bi 0.49419 0.35534 0.36895 1.0000
  Bi  Bi 0.49419 0.35534 0.36895 1.0000
  Bi  Bi 0.48219 0.33752 0.63104 1.0000
  Bi  Bi 0.48219 0.33752 0.63104 1.0000
  Bi  Bi 0.47637 0.33462 0.00000 1.0000
  Bi  Bi 0.47637 0.33462 0.00000 1.0000
  Bi  Bi 0.47637 0.33462 0.00000 1.0000
  Bi  Bi 0.47637 0.33462 0.00000 1.0000
  Bi  Bi 0.51781 0.35534 0.36895 1.0000
  Bi  Bi 0.51781 0.35534 0.36895 1.0000
  Bi  Bi 0.50581 0.33752 0.63104 1.0000
  Bi  Bi 0.50581 0.33752 0.63104 1.0000
  Bi  Bi 0.50000 0.33462 0.00000 1.0000
  Bi  Bi 0.50000 0.33462 0.00000 1.0000
  Bi  Bi 0.50000 0.33462 0.00000 1.0000
  Bi  Bi 0.50000 0.33462 0.00000 1.0000
  Bi  Bi 0.54144 0.35534 0.36895 1.0000
  Bi  Bi 0.54144 0.35534 0.36895 1.0000
  Bi  Bi 0.52944 0.33752 0.63104 1.0000
  Bi  Bi 0.52944 0.33752 0.63104 1.0000
  Bi  Bi 0.52363 0.33462 0.00000 1.0000
  Bi  Bi 0.52363 0.33462 0.00000 1.0000
  Bi  Bi 0.52363 0.33462 0.00000 1.0000
  Bi  Bi 0.52363 0.33462 0.00000 1.0000
  Bi  Bi 0.56507 0.35534 0.36895 1.0000
  Bi  Bi 0.56507 0.35534 0.36895 1.0000
  Bi  Bi 0.55306 0.33752 0.63104 1.0000
  Bi  Bi 0.55306 0.33752 0.63104 1.0000
  Bi  Bi 0.54725 0.33462 0.00000 1.0000
  Bi  Bi 0.54725 0.33462 0.00000 1.0000
  Bi  Bi 0.54725 0.33462 0.00000 1.0000
  Bi  Bi 0.54725 0.33462 0.00000 1.0000
  Bi  Bi 0.58869 0.35534 0.36895 1.0000
  Bi  Bi 0.58869 0.35534 0.36895 1.0000
  Bi  Bi 0.57669 0.33752 0.63104 1.0000
  Bi  Bi 0.57669 0.33752 0.63104 1.0000
  Bi  Bi 0.57088 0.33462 0.00000 1.0000
  Bi  Bi 0.57088 0.33462 0.00000 1.0000
  Bi  Bi 0.57088 0.33462 0.00000 1.0000
  Bi  Bi 0.57088 0.33462 0.00000 1.0000
  Bi  Bi 0.61232 0.35534 0.36895 1.0000
  Bi  Bi 0.61232 0.35534 0.36895 1.0000
  Bi  Bi 0.60032 0.33752 0.63104 1.0000
  Bi  Bi 0.60032 0.33752 0.63104 1.0000
  Bi  Bi 0.59450 0.33462 0.00000 1.0000
  Bi  Bi 0.59450 0.33462 0.00000 1.0000
  Bi  Bi 0.59450 0.33462 0.00000 1.0000
  Bi  Bi 0.59450 0.33462 0.00000 1.0000
  Bi  Bi 0.63594 0.35534 0.36895 1.0000
  Bi  Bi 0.63594 0.35534 0.36895 1.0000
  Bi  Bi 0.62394 0.33752 0.63104 1.0000
  Bi  Bi 0.62394 0.33752 0.63104 1.0000
  Bi  Bi 0.61813 0.33462 0.00000 1.0000
  Bi  Bi 0.61813 0.33462 0.00000 1.0000
  Bi  Bi 0.61813 0.33462 0.00000 1.0000
  Bi  Bi 0.61813 0.33462 0.00000 1.0000
  Bi  Bi 0.65957 0.35534 0.36895 1.0000
  Bi  Bi 0.65957 0.35534 0.36895 1.0000
  Bi  Bi 0.64757 0.33752 0.63104 1.0000
  Bi  Bi 0.64757 0.33752 0.63104 1.0000
  Bi  Bi 0.64176 0.33462 0.00000 1.0000
  Bi  Bi 0.64176 0.33462 0.00000 1.0000
  Bi  Bi 0.64176 0.33462 0.00000 1.0000
  Bi  Bi 0.64176 0.33462 0.00000 1.0000
  Bi  Bi 0.68320 0.35534 0.36895 1.0000
  Bi  Bi 0.68320 0.35534 0.36895 1.0000
  Bi  Bi 0.67119 0.33752 0.63104 1.0000
  Bi  Bi 0.67119 0.33752 0.63104 1.0000
  Bi  Bi 0.66538 0.33462 0.00000 1.0000
  Bi  Bi 0.66538 0.33462 0.00000 1.0000
  Bi  Bi 0.66538 0.33462 0.00000 1.0000
  Bi  Bi 0.66538 0.33462 0.00000 1.0000
  Bi  Bi 0.70682 0.35534 0.36895 1.0000
  Bi  Bi 0.70682 0.35534 0.36895 1.0000
  Bi  Bi 0.69482 0.33752 0.63104 1.0000
  Bi  Bi 0.69482 0.33752 0.63104 1.0000
  Bi  Bi 0.68901 0.33462 0.00000 1.0000
  Bi  Bi 0.68901 0.33462 0.00000 1.0000
  Bi  Bi 0.68901 0.33462 0.00000 1.0000
  Bi  Bi 0.68901 0.33462 0.00000 1.0000
  Bi  Bi 0.73045 0.35534 0.36895 1.0000
  Bi  Bi 0.73045 0.35534 0.36895 1.0000
  Bi  Bi 0.71844 0.33752 0.63104 1.0000
  Bi  Bi 0.71844 0.33752 0.63104 1.0000
  Bi  Bi 0.71263 0.33462 0.00000 1.0000
  Bi  Bi 0.71263 0.33462 0.00000 1.0000
  Bi  Bi 0.71263 0.33462 0.00000 1.0000
  Bi  Bi 0.71263 0.33462 0.00000 1.0000
  Bi  Bi 0.75407 0.35534 0.36895 1.0000
  Bi  Bi 0.75407 0.35534 0.36895 1.0000
  Bi  Bi 0.74207 0.33752 0.63104 1.0000
  Bi  Bi 0.74207 0.33752 0.63104 1.0000
  Bi  Bi 0.73626 0.33462 0.00000 1.0000
  Bi  Bi 0.73626 0.33462 0.00000 1.0000
  Bi  Bi 0.73626 0.33462 0.00000 1.0000
  Bi  Bi 0.73626 0.33462 0.00000 1.0000
  Bi  Bi 0.77770 0.35534 0.36895 1.0000
  Bi  Bi 0.77770 0.35534 0.36895 1.0000
  Bi  Bi 0.76570 0.33752 0.63104 1.0000
  Bi  Bi 0.76570 0.33752 0.63104 1.0000
  Bi  Bi 0.75989 0.33462 0.00000 1.0000
  Bi  Bi 0.75989 0.33462 0.00000 1.0000
  Bi  Bi 0.75989 0.33462 0.00000 1.0000
  Bi  Bi 0.75989 0.33462 0.00000 1.0000
  Bi  Bi 0.80133 0.35534 0.36895 1.0000
  Bi  Bi 0.80133 0.35534 0.36895 1.0000
  Bi  Bi 0.78932 0.33752 0.63104 1.0000
  Bi  Bi 0.78932 0.33752 0.63104 1.0000
  Bi  Bi 0.78351 0.33462 0.00000 1.0000
  Bi  Bi 0.78351 0.33462 0.00000 1.0000
  Bi  Bi 0.78351 0.33462 0.00000 1.0000
  Bi  Bi 0.78351 0.33462 0.00000 1.0000
  Bi  Bi 0.82495 0.35534 0.36895 1.0000
  Bi  Bi 0.82495 0.35534 0.36895 1.0000
  Bi  Bi 0.81295 0.33752 0.63104 1.0000
  Bi  Bi 0.81295 0.33752 0.63104 1.0000
  Bi  Bi 0.80714 0.33462 0.00000 1.0000
  Bi  Bi 0.80714 0.33462 0.00000 1.0000
  Bi  Bi 0.80714 0.33462 0.00000 1.0000
  Bi  Bi 0.80714 0.33462 0.00000 1.0000
  Bi  Bi 0.84858 0.35534 0.36895 1.0000
  Bi  Bi 0.84858 0.35534 0.36895 1.0000
  Bi  Bi 0.83657 0.33752 0.63104 1.0000
  Bi  Bi 0.83657 0.33752 0.63104 1.0000
  Bi  Bi 0.83076 0.33462 0.00000 1.0000
  Bi  Bi 0.83076 0.33462 0.00000 1.0000
  Bi  Bi 0.83076 0.33462 0.00000 1.0000
  Bi  Bi 0.83076 0.33462 0.00000 1.0000
  Bi  Bi 0.87220 0.35534 0.36895 1.0000
  Bi  Bi 0.87220 0.35534 0.36895 1.0000
  Bi  Bi 0.86020 0.33752 0.63104 1.0000
  Bi  Bi 0.86020 0.33752 0.63104 1.0000
  Bi  Bi 0.85439 0.33462 0.00000 1.0000
  Bi  Bi 0.85439 0.33462 0.00000 1.0000
  Bi  Bi 0.85439 0.33462 0.00000 1.0000
  Bi  Bi 0.85439 0.33462 0.00000 1.0000
  Bi  Bi 0.89583 0.35534 0.36895 1.0000
  Bi  Bi 0.89583 0.35534 0.36895 1.0000
  Bi  Bi 0.88383 0.33752 0.63104 1.0000
  Bi  Bi 0.88383 0.33752 0.63104 1.0000
  Bi  Bi 0.87802 0.33462 0.00000 1.0000
  Bi  Bi 0.87802 0.33462 0.00000 1.0000
  Bi  Bi 0.87802 0.33462 0.00000 1.0000
  Bi  Bi 0.87802 0.33462 0.00000 1.0000
  Bi  Bi 0.91946 0.35534 0.36895 1.0000
  Bi  Bi 0.91946 0.35534 0.36895 1.0000
  Bi  Bi 0.90745 0.33752 0.63104 1.0000
  Bi  Bi 0.90745 0.33752 0.63104 1.0000
  Bi  Bi 0.90164 0.33462 0.00000 1.0000
  Bi  Bi 0.90164 0.33462 0.00000 1.0000
  Bi  Bi 0.90164 0.33462 0.00000 1.0000
  Bi  Bi 0.90164 0.33462 0.00000 1.0000
  Bi  Bi 0.94308 0.35534 0.36895 1.0000
  Bi  Bi 0.94308 0.35534 0.36895 1.0000
  Bi  Bi 0.93108 0.33752 0.63104 1.0000
  Bi  Bi 0.93108 0.33752 0.63104 1.0000
  Bi  Bi 0.92527 0.33462 0.00000 1.0000
  Bi  Bi 0.92527 0.33462 0.00000 1.0000
  Bi  Bi 0.92527 0.33462 0.00000 1.0000
  Bi  Bi 0.92527 0.33462 0.00000 1.0000
  Bi  Bi 0.96671 0.35534 0.36895 1.0000
  Bi  Bi 0.96671 0.35534 0.36895 1.0000
  Bi  Bi 0.95470 0.33752 0.63104 1.0000
  Bi  Bi 0.95470 0.33752 0.63104 1.0000
  Bi  Bi 0.94889 0.33462 0.00000 1.0000
  Bi  Bi 0.94889 0.33462 0.00000 1.0000
  Bi  Bi 0.94889 0.33462 0.00000 1.0000
  Bi  Bi 0.94889 0.33462 0.00000 1.0000
  Bi  Bi 0.04530 0.37896 0.36895 1.0000
  Bi  Bi 0.04530 0.37896 0.36895 1.0000
  Bi  Bi 0.03329 0.36115 0.63104 1.0000
  Bi  Bi 0.03329 0.36115 0.63104 1.0000
  Bi  Bi 0.02748 0.35824 0.00000 1.0000
  Bi  Bi 0.02748 0.35824 0.00000 1.0000
  Bi  Bi 0.02748 0.35824 0.00000 1.0000
  Bi  Bi 0.02748 0.35824 0.00000 1.0000
  Bi  Bi 0.06892 0.37896 0.36895 1.0000
  Bi  Bi 0.06892 0.37896 0.36895 1.0000
  Bi  Bi 0.05692 0.36115 0.63104 1.0000
  Bi  Bi 0.05692 0.36115 0.63104 1.0000
  Bi  Bi 0.05111 0.35824 0.00000 1.0000
  Bi  Bi 0.05111 0.35824 0.00000 1.0000
  Bi  Bi 0.05111 0.35824 0.00000 1.0000
  Bi  Bi 0.05111 0.35824 0.00000 1.0000
  Bi  Bi 0.09255 0.37896 0.36895 1.0000
  Bi  Bi 0.09255 0.37896 0.36895 1.0000
  Bi  Bi 0.08054 0.36115 0.63104 1.0000
  Bi  Bi 0.08054 0.36115 0.63104 1.0000
  Bi  Bi 0.07473 0.35824 0.00000 1.0000
  Bi  Bi 0.07473 0.35824 0.00000 1.0000
  Bi  Bi 0.07473 0.35824 0.00000 1.0000
  Bi  Bi 0.07473 0.35824 0.00000 1.0000
  Bi  Bi 0.11617 0.37896 0.36895 1.0000
  Bi  Bi 0.11617 0.37896 0.36895 1.0000
  Bi  Bi 0.10417 0.36115 0.63104 1.0000
  Bi  Bi 0.10417 0.36115 0.63104 1.0000
  Bi  Bi 0.09836 0.35824 0.00000 1.0000
  Bi  Bi 0.09836 0.35824 0.00000 1.0000
  Bi  Bi 0.09836 0.35824 0.00000 1.0000
  Bi  Bi 0.09836 0.35824 0.00000 1.0000
  Bi  Bi 0.13980 0.37896 0.36895 1.0000
  Bi  Bi 0.13980 0.37896 0.36895 1.0000
  Bi  Bi 0.12780 0.36115 0.63104 1.0000
  Bi  Bi 0.12780 0.36115 0.63104 1.0000
  Bi  Bi 0.12198 0.35824 0.00000 1.0000
  Bi  Bi 0.12198 0.35824 0.00000 1.0000
  Bi  Bi 0.12198 0.35824 0.00000 1.0000
  Bi  Bi 0.12198 0.35824 0.00000 1.0000
  Bi  Bi 0.16343 0.37896 0.36895 1.0000
  Bi  Bi 0.16343 0.37896 0.36895 1.0000
  Bi  Bi 0.15142 0.36115 0.63104 1.0000
  Bi  Bi 0.15142 0.36115 0.63104 1.0000
  Bi  Bi 0.14561 0.35824 0.00000 1.0000
  Bi  Bi 0.14561 0.35824 0.00000 1.0000
  Bi  Bi 0.14561 0.35824 0.00000 1.0000
  Bi  Bi 0.14561 0.35824 0.00000 1.0000
  Bi  Bi 0.18705 0.37896 0.36895 1.0000
  Bi  Bi 0.18705 0.37896 0.36895 1.0000
  Bi  Bi 0.17505 0.36115 0.63104 1.0000
  Bi  Bi 0.17505 0.36115 0.63104 1.0000
  Bi  Bi 0.16924 0.35824 0.00000 1.0000
  Bi  Bi 0.16924 0.35824 0.00000 1.0000
  Bi  Bi 0.16924 0.35824 0.00000 1.0000
  Bi  Bi 0.16924 0.35824 0.00000 1.0000
  Bi  Bi 0.21068 0.37896 0.36895 1.0000
  Bi  Bi 0.21068 0.37896 0.36895 1.0000
  Bi  Bi 0.19867 0.36115 0.63104 1.0000
  Bi  Bi 0.19867 0.36115 0.63104 1.0000
  Bi  Bi 0.19286 0.35824 0.00000 1.0000
  Bi  Bi 0.19286 0.35824 0.00000 1.0000
  Bi  Bi 0.19286 0.35824 0.00000 1.0000
  Bi  Bi 0.19286 0.35824 0.00000 1.0000
  Bi  Bi 0.23430 0.37896 0.36895 1.0000
  Bi  Bi 0.23430 0.37896 0.36895 1.0000
  Bi  Bi 0.22230 0.36115 0.63104 1.0000
  Bi  Bi 0.22230 0.36115 0.63104 1.0000
  Bi  Bi 0.21649 0.35824 0.00000 1.0000
  Bi  Bi 0.21649 0.35824 0.00000 1.0000
  Bi  Bi 0.21649 0.35824 0.00000 1.0000
  Bi  Bi 0.21649 0.35824 0.00000 1.0000
  Bi  Bi 0.25793 0.37896 0.36895 1.0000
  Bi  Bi 0.25793 0.37896 0.36895 1.0000
  Bi  Bi 0.24593 0.36115 0.63104 1.0000
  Bi  Bi 0.24593 0.36115 0.63104 1.0000
  Bi  Bi 0.24011 0.35824 0.00000 1.0000
  Bi  Bi 0.24011 0.35824 0.00000 1.0000
  Bi  Bi 0.24011 0.35824 0.00000 1.0000
  Bi  Bi 0.24011 0.35824 0.00000 1.0000
  Bi  Bi 0.28156 0.37896 0.36895 1.0000
  Bi  Bi 0.28156 0.37896 0.36895 1.0000
  Bi  Bi 0.26955 0.36115 0.63104 1.0000
  Bi  Bi 0.26955 0.36115 0.63104 1.0000
  Bi  Bi 0.26374 0.35824 0.00000 1.0000
  Bi  Bi 0.26374 0.35824 0.00000 1.0000
  Bi  Bi 0.26374 0.35824 0.00000 1.0000
  Bi  Bi 0.26374 0.35824 0.00000 1.0000
  Bi  Bi 0.30518 0.37896 0.36895 1.0000
  Bi  Bi 0.30518 0.37896 0.36895 1.0000
  Bi  Bi 0.29318 0.36115 0.63104 1.0000
  Bi  Bi 0.29318 0.36115 0.63104 1.0000
  Bi  Bi 0.28737 0.35824 0.00000 1.0000
  Bi  Bi 0.28737 0.35824 0.00000 1.0000
  Bi  Bi 0.28737 0.35824 0.00000 1.0000
  Bi  Bi 0.28737 0.35824 0.00000 1.0000
  Bi  Bi 0.32881 0.37896 0.36895 1.0000
  Bi  Bi 0.32881 0.37896 0.36895 1.0000
  Bi  Bi 0.31680 0.36115 0.63104 1.0000
  Bi  Bi 0.31680 0.36115 0.63104 1.0000
  Bi  Bi 0.31099 0.35824 0.00000 1.0000
  Bi  Bi 0.31099 0.35824 0.00000 1.0000
  Bi  Bi 0.31099 0.35824 0.00000 1.0000
  Bi  Bi 0.31099 0.35824 0.00000 1.0000
  Bi  Bi 0.35243 0.37896 0.36895 1.0000
  Bi  Bi 0.35243 0.37896 0.36895 1.0000
  Bi  Bi 0.34043 0.36115 0.63104 1.0000
  Bi  Bi 0.34043 0.36115 0.63104 1.0000
  Bi  Bi 0.33462 0.35824 0.00000 1.0000
  Bi  Bi 0.33462 0.35824 0.00000 1.0000
  Bi  Bi 0.33462 0.35824 0.00000 1.0000
  Bi  Bi 0.33462 0.35824 0.00000 1.0000
  Bi  Bi 0.37606 0.37896 0.36895 1.0000
  Bi  Bi 0.37606 0.37896 0.36895 1.0000
  Bi  Bi 0.36406 0.36115 0.63104 1.0000
  Bi  Bi 0.36406 0.36115 0.63104 1.0000
  Bi  Bi 0.35824 0.35824 0.00000 1.0000
  Bi  Bi 0.35824 0.35824 0.00000 1.0000
  Bi  Bi 0.35824 0.35824 0.00000 1.0000
  Bi  Bi 0.35824 0.35824 0.00000 1.0000
  Bi  Bi 0.39968 0.37896 0.36895 1.0000
  Bi  Bi 0.39968 0.37896 0.36895 1.0000
  Bi  Bi 0.38768 0.36115 0.63104 1.0000
  Bi  Bi 0.38768 0.36115 0.63104 1.0000
  Bi  Bi 0.38187 0.35824 0.00000 1.0000
  Bi  Bi 0.38187 0.35824 0.00000 1.0000
  Bi  Bi 0.38187 0.35824 0.00000 1.0000
  Bi  Bi 0.38187 0.35824 0.00000 1.0000
  Bi  Bi 0.42331 0.37896 0.36895 1.0000
  Bi  Bi 0.42331 0.37896 0.36895 1.0000
  Bi  Bi 0.41131 0.36115 0.63104 1.0000
  Bi  Bi 0.41131 0.36115 0.63104 1.0000
  Bi  Bi 0.40550 0.35824 0.00000 1.0000
  Bi  Bi 0.40550 0.35824 0.00000 1.0000
  Bi  Bi 0.40550 0.35824 0.00000 1.0000
  Bi  Bi 0.40550 0.35824 0.00000 1.0000
  Bi  Bi 0.44694 0.37896 0.36895 1.0000
  Bi  Bi 0.44694 0.37896 0.36895 1.0000
  Bi  Bi 0.43493 0.36115 0.63104 1.0000
  Bi  Bi 0.43493 0.36115 0.63104 1.0000
  Bi  Bi 0.42912 0.35824 0.00000 1.0000
  Bi  Bi 0.42912 0.35824 0.00000 1.0000
  Bi  Bi 0.42912 0.35824 0.00000 1.0000
  Bi  Bi 0.42912 0.35824 0.00000 1.0000
  Bi  Bi 0.47056 0.37896 0.36895 1.0000
  Bi  Bi 0.47056 0.37896 0.36895 1.0000
  Bi  Bi 0.45856 0.36115 0.63104 1.0000
  Bi  Bi 0.45856 0.36115 0.63104 1.0000
  Bi  Bi 0.45275 0.35824 0.00000 1.0000
  Bi  Bi 0.45275 0.35824 0.00000 1.0000
  Bi  Bi 0.45275 0.35824 0.00000 1.0000
  Bi  Bi 0.45275 0.35824 0.00000 1.0000
  Bi  Bi 0.49419 0.37896 0.36895 1.0000
  Bi  Bi 0.49419 0.37896 0.36895 1.0000
  Bi  Bi 0.48219 0.36115 0.63104 1.0000
  Bi  Bi 0.48219 0.36115 0.63104 1.0000
  Bi  Bi 0.47637 0.35824 0.00000 1.0000
  Bi  Bi 0.47637 0.35824 0.00000 1.0000
  Bi  Bi 0.47637 0.35824 0.00000 1.0000
  Bi  Bi 0.47637 0.35824 0.00000 1.0000
  Bi  Bi 0.51781 0.37896 0.36895 1.0000
  Bi  Bi 0.51781 0.37896 0.36895 1.0000
  Bi  Bi 0.50581 0.36115 0.63104 1.0000
  Bi  Bi 0.50581 0.36115 0.63104 1.0000
  Bi  Bi 0.50000 0.35824 0.00000 1.0000
  Bi  Bi 0.50000 0.35824 0.00000 1.0000
  Bi  Bi 0.50000 0.35824 0.00000 1.0000
  Bi  Bi 0.50000 0.35824 0.00000 1.0000
  Bi  Bi 0.54144 0.37896 0.36895 1.0000
  Bi  Bi 0.54144 0.37896 0.36895 1.0000
  Bi  Bi 0.52944 0.36115 0.63104 1.0000
  Bi  Bi 0.52944 0.36115 0.63104 1.0000
  Bi  Bi 0.52363 0.35824 0.00000 1.0000
  Bi  Bi 0.52363 0.35824 0.00000 1.0000
  Bi  Bi 0.52363 0.35824 0.00000 1.0000
  Bi  Bi 0.52363 0.35824 0.00000 1.0000
  Bi  Bi 0.56507 0.37896 0.36895 1.0000
  Bi  Bi 0.56507 0.37896 0.36895 1.0000
  Bi  Bi 0.55306 0.36115 0.63104 1.0000
  Bi  Bi 0.55306 0.36115 0.63104 1.0000
  Bi  Bi 0.54725 0.35824 0.00000 1.0000
  Bi  Bi 0.54725 0.35824 0.00000 1.0000
  Bi  Bi 0.54725 0.35824 0.00000 1.0000
  Bi  Bi 0.54725 0.35824 0.00000 1.0000
  Bi  Bi 0.58869 0.37896 0.36895 1.0000
  Bi  Bi 0.58869 0.37896 0.36895 1.0000
  Bi  Bi 0.57669 0.36115 0.63104 1.0000
  Bi  Bi 0.57669 0.36115 0.63104 1.0000
  Bi  Bi 0.57088 0.35824 0.00000 1.0000
  Bi  Bi 0.57088 0.35824 0.00000 1.0000
  Bi  Bi 0.57088 0.35824 0.00000 1.0000
  Bi  Bi 0.57088 0.35824 0.00000 1.0000
  Bi  Bi 0.61232 0.37896 0.36895 1.0000
  Bi  Bi 0.61232 0.37896 0.36895 1.0000
  Bi  Bi 0.60032 0.36115 0.63104 1.0000
  Bi  Bi 0.60032 0.36115 0.63104 1.0000
  Bi  Bi 0.59450 0.35824 0.00000 1.0000
  Bi  Bi 0.59450 0.35824 0.00000 1.0000
  Bi  Bi 0.59450 0.35824 0.00000 1.0000
  Bi  Bi 0.59450 0.35824 0.00000 1.0000
  Bi  Bi 0.63594 0.37896 0.36895 1.0000
  Bi  Bi 0.63594 0.37896 0.36895 1.0000
  Bi  Bi 0.62394 0.36115 0.63104 1.0000
  Bi  Bi 0.62394 0.36115 0.63104 1.0000
  Bi  Bi 0.61813 0.35824 0.00000 1.0000
  Bi  Bi 0.61813 0.35824 0.00000 1.0000
  Bi  Bi 0.61813 0.35824 0.00000 1.0000
  Bi  Bi 0.61813 0.35824 0.00000 1.0000
  Bi  Bi 0.65957 0.37896 0.36895 1.0000
  Bi  Bi 0.65957 0.37896 0.36895 1.0000
  Bi  Bi 0.64757 0.36115 0.63104 1.0000
  Bi  Bi 0.64757 0.36115 0.63104 1.0000
  Bi  Bi 0.64176 0.35824 0.00000 1.0000
  Bi  Bi 0.64176 0.35824 0.00000 1.0000
  Bi  Bi 0.64176 0.35824 0.00000 1.0000
  Bi  Bi 0.64176 0.35824 0.00000 1.0000
  Bi  Bi 0.68320 0.37896 0.36895 1.0000
  Bi  Bi 0.68320 0.37896 0.36895 1.0000
  Bi  Bi 0.67119 0.36115 0.63104 1.0000
  Bi  Bi 0.67119 0.36115 0.63104 1.0000
  Bi  Bi 0.66538 0.35824 0.00000 1.0000
  Bi  Bi 0.66538 0.35824 0.00000 1.0000
  Bi  Bi 0.66538 0.35824 0.00000 1.0000
  Bi  Bi 0.66538 0.35824 0.00000 1.0000
  Bi  Bi 0.70682 0.37896 0.36895 1.0000
  Bi  Bi 0.70682 0.37896 0.36895 1.0000
  Bi  Bi 0.69482 0.36115 0.63104 1.0000
  Bi  Bi 0.69482 0.36115 0.63104 1.0000
  Bi  Bi 0.68901 0.35824 0.00000 1.0000
  Bi  Bi 0.68901 0.35824 0.00000 1.0000
  Bi  Bi 0.68901 0.35824 0.00000 1.0000
  Bi  Bi 0.68901 0.35824 0.00000 1.0000
  Bi  Bi 0.73045 0.37896 0.36895 1.0000
  Bi  Bi 0.73045 0.37896 0.36895 1.0000
  Bi  Bi 0.71844 0.36115 0.63104 1.0000
  Bi  Bi 0.71844 0.36115 0.63104 1.0000
  Bi  Bi 0.71263 0.35824 0.00000 1.0000
  Bi  Bi 0.71263 0.35824 0.00000 1.0000
  Bi  Bi 0.71263 0.35824 0.00000 1.0000
  Bi  Bi 0.71263 0.35824 0.00000 1.0000
  Bi  Bi 0.75407 0.37896 0.36895 1.0000
  Bi  Bi 0.75407 0.37896 0.36895 1.0000
  Bi  Bi 0.74207 0.36115 0.63104 1.0000
  Bi  Bi 0.74207 0.36115 0.63104 1.0000
  Bi  Bi 0.73626 0.35824 0.00000 1.0000
  Bi  Bi 0.73626 0.35824 0.00000 1.0000
  Bi  Bi 0.73626 0.35824 0.00000 1.0000
  Bi  Bi 0.73626 0.35824 0.00000 1.0000
  Bi  Bi 0.77770 0.37896 0.36895 1.0000
  Bi  Bi 0.77770 0.37896 0.36895 1.0000
  Bi  Bi 0.76570 0.36115 0.63104 1.0000
  Bi  Bi 0.76570 0.36115 0.63104 1.0000
  Bi  Bi 0.75989 0.35824 0.00000 1.0000
  Bi  Bi 0.75989 0.35824 0.00000 1.0000
  Bi  Bi 0.75989 0.35824 0.00000 1.0000
  Bi  Bi 0.75989 0.35824 0.00000 1.0000
  Bi  Bi 0.80133 0.37896 0.36895 1.0000
  Bi  Bi 0.80133 0.37896 0.36895 1.0000
  Bi  Bi 0.78932 0.36115 0.63104 1.0000
  Bi  Bi 0.78932 0.36115 0.63104 1.0000
  Bi  Bi 0.78351 0.35824 0.00000 1.0000
  Bi  Bi 0.78351 0.35824 0.00000 1.0000
  Bi  Bi 0.78351 0.35824 0.00000 1.0000
  Bi  Bi 0.78351 0.35824 0.00000 1.0000
  Bi  Bi 0.82495 0.37896 0.36895 1.0000
  Bi  Bi 0.82495 0.37896 0.36895 1.0000
  Bi  Bi 0.81295 0.36115 0.63104 1.0000
  Bi  Bi 0.81295 0.36115 0.63104 1.0000
  Bi  Bi 0.80714 0.35824 0.00000 1.0000
  Bi  Bi 0.80714 0.35824 0.00000 1.0000
  Bi  Bi 0.80714 0.35824 0.00000 1.0000
  Bi  Bi 0.80714 0.35824 0.00000 1.0000
  Bi  Bi 0.84858 0.37896 0.36895 1.0000
  Bi  Bi 0.84858 0.37896 0.36895 1.0000
  Bi  Bi 0.83657 0.36115 0.63104 1.0000
  Bi  Bi 0.83657 0.36115 0.63104 1.0000
  Bi  Bi 0.83076 0.35824 0.00000 1.0000
  Bi  Bi 0.83076 0.35824 0.00000 1.0000
  Bi  Bi 0.83076 0.35824 0.00000 1.0000
  Bi  Bi 0.83076 0.35824 0.00000 1.0000
  Bi  Bi 0.87220 0.37896 0.36895 1.0000
  Bi  Bi 0.87220 0.37896 0.36895 1.0000
  Bi  Bi 0.86020 0.36115 0.63104 1.0000
  Bi  Bi 0.86020 0.36115 0.63104 1.0000
  Bi  Bi 0.85439 0.35824 0.00000 1.0000
  Bi  Bi 0.85439 0.35824 0.00000 1.0000
  Bi  Bi 0.85439 0.35824 0.00000 1.0000
  Bi  Bi 0.85439 0.35824 0.00000 1.0000
  Bi  Bi 0.89583 0.37896 0.36895 1.0000
  Bi  Bi 0.89583 0.37896 0.36895 1.0000
  Bi  Bi 0.88383 0.36115 0.63104 1.0000
  Bi  Bi 0.88383 0.36115 0.63104 1.0000
  Bi  Bi 0.87802 0.35824 0.00000 1.0000
  Bi  Bi 0.87802 0.35824 0.00000 1.0000
  Bi  Bi 0.87802 0.35824 0.00000 1.0000
  Bi  Bi 0.87802 0.35824 0.00000 1.0000
  Bi  Bi 0.91946 0.37896 0.36895 1.0000
  Bi  Bi 0.91946 0.37896 0.36895 1.0000
  Bi  Bi 0.90745 0.36115 0.63104 1.0000
  Bi  Bi 0.90745 0.36115 0.63104 1.0000
  Bi  Bi 0.90164 0.35824 0.00000 1.0000
  Bi  Bi 0.90164 0.35824 0.00000 1.0000
  Bi  Bi 0.90164 0.35824 0.00000 1.0000
  Bi  Bi 0.90164 0.35824 0.00000 1.0000
  Bi  Bi 0.94308 0.37896 0.36895 1.0000
  Bi  Bi 0.94308 0.37896 0.36895 1.0000
  Bi  Bi 0.93108 0.36115 0.63104 1.0000
  Bi  Bi 0.93108 0.36115 0.63104 1.0000
  Bi  Bi 0.92527 0.35824 0.00000 1.0000
  Bi  Bi 0.92527 0.35824 0.00000 1.0000
  Bi  Bi 0.92527 0.35824 0.00000 1.0000
  Bi  Bi 0.92527 0.35824 0.00000 1.0000
  Bi  Bi 0.96671 0.37896 0.36895 1.0000
  Bi  Bi 0.96671 0.37896 0.36895 1.0000
  Bi  Bi 0.95470 0.36115 0.63104 1.0000
  Bi  Bi 0.95470 0.36115 0.63104 1.0000
  Bi  Bi 0.94889 0.35824 0.00000 1.0000
  Bi  Bi 0.94889 0.35824 0.00000 1.0000
  Bi  Bi 0.94889 0.35824 0.00000 1.0000
  Bi  Bi 0.94889 0.35824 0.00000 1.0000
  Bi  Bi 0.04530 0.40259 0.36895 1.0000
  Bi  Bi 0.04530 0.40259 0.36895 1.0000
  Bi  Bi 0.03329 0.38478 0.63104 1.0000
  Bi  Bi 0.03329 0.38478 0.63104 1.0000
  Bi  Bi 0.02748 0.38187 0.00000 1.0000
  Bi  Bi 0.02748 0.38187 0.00000 1.0000
  Bi  Bi 0.02748 0.38187 0.00000 1.0000
  Bi  Bi 0.02748 0.38187 0.00000 1.0000
  Bi  Bi 0.06892 0.40259 0.36895 1.0000
  Bi  Bi 0.06892 0.40259 0.36895 1.0000
  Bi  Bi 0.05692 0.38478 0.63104 1.0000
  Bi  Bi 0.05692 0.38478 0.63104 1.0000
  Bi  Bi 0.05111 0.38187 0.00000 1.0000
  Bi  Bi 0.05111 0.38187 0.00000 1.0000
  Bi  Bi 0.05111 0.38187 0.00000 1.0000
  Bi  Bi 0.05111 0.38187 0.00000 1.0000
  Bi  Bi 0.09255 0.40259 0.36895 1.0000
  Bi  Bi 0.09255 0.40259 0.36895 1.0000
  Bi  Bi 0.08054 0.38478 0.63104 1.0000
  Bi  Bi 0.08054 0.38478 0.63104 1.0000
  Bi  Bi 0.07473 0.38187 0.00000 1.0000
  Bi  Bi 0.07473 0.38187 0.00000 1.0000
  Bi  Bi 0.07473 0.38187 0.00000 1.0000
  Bi  Bi 0.07473 0.38187 0.00000 1.0000
  Bi  Bi 0.11617 0.40259 0.36895 1.0000
  Bi  Bi 0.11617 0.40259 0.36895 1.0000
  Bi  Bi 0.10417 0.38478 0.63104 1.0000
  Bi  Bi 0.10417 0.38478 0.63104 1.0000
  Bi  Bi 0.09836 0.38187 0.00000 1.0000
  Bi  Bi 0.09836 0.38187 0.00000 1.0000
  Bi  Bi 0.09836 0.38187 0.00000 1.0000
  Bi  Bi 0.09836 0.38187 0.00000 1.0000
  Bi  Bi 0.13980 0.40259 0.36895 1.0000
  Bi  Bi 0.13980 0.40259 0.36895 1.0000
  Bi  Bi 0.12780 0.38478 0.63104 1.0000
  Bi  Bi 0.12780 0.38478 0.63104 1.0000
  Bi  Bi 0.12198 0.38187 0.00000 1.0000
  Bi  Bi 0.12198 0.38187 0.00000 1.0000
  Bi  Bi 0.12198 0.38187 0.00000 1.0000
  Bi  Bi 0.12198 0.38187 0.00000 1.0000
  Bi  Bi 0.16343 0.40259 0.36895 1.0000
  Bi  Bi 0.16343 0.40259 0.36895 1.0000
  Bi  Bi 0.15142 0.38478 0.63104 1.0000
  Bi  Bi 0.15142 0.38478 0.63104 1.0000
  Bi  Bi 0.14561 0.38187 0.00000 1.0000
  Bi  Bi 0.14561 0.38187 0.00000 1.0000
  Bi  Bi 0.14561 0.38187 0.00000 1.0000
  Bi  Bi 0.14561 0.38187 0.00000 1.0000
  Bi  Bi 0.18705 0.40259 0.36895 1.0000
  Bi  Bi 0.18705 0.40259 0.36895 1.0000
  Bi  Bi 0.17505 0.38478 0.63104 1.0000
  Bi  Bi 0.17505 0.38478 0.63104 1.0000
  Bi  Bi 0.16924 0.38187 0.00000 1.0000
  Bi  Bi 0.16924 0.38187 0.00000 1.0000
  Bi  Bi 0.16924 0.38187 0.00000 1.0000
  Bi  Bi 0.16924 0.38187 0.00000 1.0000
  Bi  Bi 0.21068 0.40259 0.36895 1.0000
  Bi  Bi 0.21068 0.40259 0.36895 1.0000
  Bi  Bi 0.19867 0.38478 0.63104 1.0000
  Bi  Bi 0.19867 0.38478 0.63104 1.0000
  Bi  Bi 0.19286 0.38187 0.00000 1.0000
  Bi  Bi 0.19286 0.38187 0.00000 1.0000
  Bi  Bi 0.19286 0.38187 0.00000 1.0000
  Bi  Bi 0.19286 0.38187 0.00000 1.0000
  Bi  Bi 0.23430 0.40259 0.36895 1.0000
  Bi  Bi 0.23430 0.40259 0.36895 1.0000
  Bi  Bi 0.22230 0.38478 0.63104 1.0000
  Bi  Bi 0.22230 0.38478 0.63104 1.0000
  Bi  Bi 0.21649 0.38187 0.00000 1.0000
  Bi  Bi 0.21649 0.38187 0.00000 1.0000
  Bi  Bi 0.21649 0.38187 0.00000 1.0000
  Bi  Bi 0.21649 0.38187 0.00000 1.0000
  Bi  Bi 0.25793 0.40259 0.36895 1.0000
  Bi  Bi 0.25793 0.40259 0.36895 1.0000
  Bi  Bi 0.24593 0.38478 0.63104 1.0000
  Bi  Bi 0.24593 0.38478 0.63104 1.0000
  Bi  Bi 0.24011 0.38187 0.00000 1.0000
  Bi  Bi 0.24011 0.38187 0.00000 1.0000
  Bi  Bi 0.24011 0.38187 0.00000 1.0000
  Bi  Bi 0.24011 0.38187 0.00000 1.0000
  Bi  Bi 0.28156 0.40259 0.36895 1.0000
  Bi  Bi 0.28156 0.40259 0.36895 1.0000
  Bi  Bi 0.26955 0.38478 0.63104 1.0000
  Bi  Bi 0.26955 0.38478 0.63104 1.0000
  Bi  Bi 0.26374 0.38187 0.00000 1.0000
  Bi  Bi 0.26374 0.38187 0.00000 1.0000
  Bi  Bi 0.26374 0.38187 0.00000 1.0000
  Bi  Bi 0.26374 0.38187 0.00000 1.0000
  Bi  Bi 0.30518 0.40259 0.36895 1.0000
  Bi  Bi 0.30518 0.40259 0.36895 1.0000
  Bi  Bi 0.29318 0.38478 0.63104 1.0000
  Bi  Bi 0.29318 0.38478 0.63104 1.0000
  Bi  Bi 0.28737 0.38187 0.00000 1.0000
  Bi  Bi 0.28737 0.38187 0.00000 1.0000
  Bi  Bi 0.28737 0.38187 0.00000 1.0000
  Bi  Bi 0.28737 0.38187 0.00000 1.0000
  Bi  Bi 0.32881 0.40259 0.36895 1.0000
  Bi  Bi 0.32881 0.40259 0.36895 1.0000
  Bi  Bi 0.31680 0.38478 0.63104 1.0000
  Bi  Bi 0.31680 0.38478 0.63104 1.0000
  Bi  Bi 0.31099 0.38187 0.00000 1.0000
  Bi  Bi 0.31099 0.38187 0.00000 1.0000
  Bi  Bi 0.31099 0.38187 0.00000 1.0000
  Bi  Bi 0.31099 0.38187 0.00000 1.0000
  Bi  Bi 0.35243 0.40259 0.36895 1.0000
  Bi  Bi 0.35243 0.40259 0.36895 1.0000
  Bi  Bi 0.34043 0.38478 0.63104 1.0000
  Bi  Bi 0.34043 0.38478 0.63104 1.0000
  Bi  Bi 0.33462 0.38187 0.00000 1.0000
  Bi  Bi 0.33462 0.38187 0.00000 1.0000
  Bi  Bi 0.33462 0.38187 0.00000 1.0000
  Bi  Bi 0.33462 0.38187 0.00000 1.0000
  Bi  Bi 0.37606 0.40259 0.36895 1.0000
  Bi  Bi 0.37606 0.40259 0.36895 1.0000
  Bi  Bi 0.36406 0.38478 0.63104 1.0000
  Bi  Bi 0.36406 0.38478 0.63104 1.0000
  Bi  Bi 0.35824 0.38187 0.00000 1.0000
  Bi  Bi 0.35824 0.38187 0.00000 1.0000
  Bi  Bi 0.35824 0.38187 0.00000 1.0000
  Bi  Bi 0.35824 0.38187 0.00000 1.0000
  Bi  Bi 0.39968 0.40259 0.36895 1.0000
  Bi  Bi 0.39968 0.40259 0.36895 1.0000
  Bi  Bi 0.38768 0.38478 0.63104 1.0000
  Bi  Bi 0.38768 0.38478 0.63104 1.0000
  Bi  Bi 0.38187 0.38187 0.00000 1.0000
  Bi  Bi 0.38187 0.38187 0.00000 1.0000
  Bi  Bi 0.38187 0.38187 0.00000 1.0000
  Bi  Bi 0.38187 0.38187 0.00000 1.0000
  Bi  Bi 0.42331 0.40259 0.36895 1.0000
  Bi  Bi 0.42331 0.40259 0.36895 1.0000
  Bi  Bi 0.41131 0.38478 0.63104 1.0000
  Bi  Bi 0.41131 0.38478 0.63104 1.0000
  Bi  Bi 0.40550 0.38187 0.00000 1.0000
  Bi  Bi 0.40550 0.38187 0.00000 1.0000
  Bi  Bi 0.40550 0.38187 0.00000 1.0000
  Bi  Bi 0.40550 0.38187 0.00000 1.0000
  Bi  Bi 0.44694 0.40259 0.36895 1.0000
  Bi  Bi 0.44694 0.40259 0.36895 1.0000
  Bi  Bi 0.43493 0.38478 0.63104 1.0000
  Bi  Bi 0.43493 0.38478 0.63104 1.0000
  Bi  Bi 0.42912 0.38187 0.00000 1.0000
  Bi  Bi 0.42912 0.38187 0.00000 1.0000
  Bi  Bi 0.42912 0.38187 0.00000 1.0000
  Bi  Bi 0.42912 0.38187 0.00000 1.0000
  Bi  Bi 0.47056 0.40259 0.36895 1.0000
  Bi  Bi 0.47056 0.40259 0.36895 1.0000
  Bi  Bi 0.45856 0.38478 0.63104 1.0000
  Bi  Bi 0.45856 0.38478 0.63104 1.0000
  Bi  Bi 0.45275 0.38187 0.00000 1.0000
  Bi  Bi 0.45275 0.38187 0.00000 1.0000
  Bi  Bi 0.45275 0.38187 0.00000 1.0000
  Bi  Bi 0.45275 0.38187 0.00000 1.0000
  Bi  Bi 0.49419 0.40259 0.36895 1.0000
  Bi  Bi 0.49419 0.40259 0.36895 1.0000
  Bi  Bi 0.48219 0.38478 0.63104 1.0000
  Bi  Bi 0.48219 0.38478 0.63104 1.0000
  Bi  Bi 0.47637 0.38187 0.00000 1.0000
  Bi  Bi 0.47637 0.38187 0.00000 1.0000
  Bi  Bi 0.47637 0.38187 0.00000 1.0000
  Bi  Bi 0.47637 0.38187 0.00000 1.0000
  Bi  Bi 0.51781 0.40259 0.36895 1.0000
  Bi  Bi 0.51781 0.40259 0.36895 1.0000
  Bi  Bi 0.50581 0.38478 0.63104 1.0000
  Bi  Bi 0.50581 0.38478 0.63104 1.0000
  Bi  Bi 0.50000 0.38187 0.00000 1.0000
  Bi  Bi 0.50000 0.38187 0.00000 1.0000
  Bi  Bi 0.50000 0.38187 0.00000 1.0000
  Bi  Bi 0.50000 0.38187 0.00000 1.0000
  Bi  Bi 0.54144 0.40259 0.36895 1.0000
  Bi  Bi 0.54144 0.40259 0.36895 1.0000
  Bi  Bi 0.52944 0.38478 0.63104 1.0000
  Bi  Bi 0.52944 0.38478 0.63104 1.0000
  Bi  Bi 0.52363 0.38187 0.00000 1.0000
  Bi  Bi 0.52363 0.38187 0.00000 1.0000
  Bi  Bi 0.52363 0.38187 0.00000 1.0000
  Bi  Bi 0.52363 0.38187 0.00000 1.0000
  Bi  Bi 0.56507 0.40259 0.36895 1.0000
  Bi  Bi 0.56507 0.40259 0.36895 1.0000
  Bi  Bi 0.55306 0.38478 0.63104 1.0000
  Bi  Bi 0.55306 0.38478 0.63104 1.0000
  Bi  Bi 0.54725 0.38187 0.00000 1.0000
  Bi  Bi 0.54725 0.38187 0.00000 1.0000
  Bi  Bi 0.54725 0.38187 0.00000 1.0000
  Bi  Bi 0.54725 0.38187 0.00000 1.0000
  Bi  Bi 0.58869 0.40259 0.36895 1.0000
  Bi  Bi 0.58869 0.40259 0.36895 1.0000
  Bi  Bi 0.57669 0.38478 0.63104 1.0000
  Bi  Bi 0.57669 0.38478 0.63104 1.0000
  Bi  Bi 0.57088 0.38187 0.00000 1.0000
  Bi  Bi 0.57088 0.38187 0.00000 1.0000
  Bi  Bi 0.57088 0.38187 0.00000 1.0000
  Bi  Bi 0.57088 0.38187 0.00000 1.0000
  Bi  Bi 0.61232 0.40259 0.36895 1.0000
  Bi  Bi 0.61232 0.40259 0.36895 1.0000
  Bi  Bi 0.60032 0.38478 0.63104 1.0000
  Bi  Bi 0.60032 0.38478 0.63104 1.0000
  Bi  Bi 0.59450 0.38187 0.00000 1.0000
  Bi  Bi 0.59450 0.38187 0.00000 1.0000
  Bi  Bi 0.59450 0.38187 0.00000 1.0000
  Bi  Bi 0.59450 0.38187 0.00000 1.0000
  Bi  Bi 0.63594 0.40259 0.36895 1.0000
  Bi  Bi 0.63594 0.40259 0.36895 1.0000
  Bi  Bi 0.62394 0.38478 0.63104 1.0000
  Bi  Bi 0.62394 0.38478 0.63104 1.0000
  Bi  Bi 0.61813 0.38187 0.00000 1.0000
  Bi  Bi 0.61813 0.38187 0.00000 1.0000
  Bi  Bi 0.61813 0.38187 0.00000 1.0000
  Bi  Bi 0.61813 0.38187 0.00000 1.0000
  Bi  Bi 0.65957 0.40259 0.36895 1.0000
  Bi  Bi 0.65957 0.40259 0.36895 1.0000
  Bi  Bi 0.64757 0.38478 0.63104 1.0000
  Bi  Bi 0.64757 0.38478 0.63104 1.0000
  Bi  Bi 0.64176 0.38187 0.00000 1.0000
  Bi  Bi 0.64176 0.38187 0.00000 1.0000
  Bi  Bi 0.64176 0.38187 0.00000 1.0000
  Bi  Bi 0.64176 0.38187 0.00000 1.0000
  Bi  Bi 0.68320 0.40259 0.36895 1.0000
  Bi  Bi 0.68320 0.40259 0.36895 1.0000
  Bi  Bi 0.67119 0.38478 0.63104 1.0000
  Bi  Bi 0.67119 0.38478 0.63104 1.0000
  Bi  Bi 0.66538 0.38187 0.00000 1.0000
  Bi  Bi 0.66538 0.38187 0.00000 1.0000
  Bi  Bi 0.66538 0.38187 0.00000 1.0000
  Bi  Bi 0.66538 0.38187 0.00000 1.0000
  Bi  Bi 0.70682 0.40259 0.36895 1.0000
  Bi  Bi 0.70682 0.40259 0.36895 1.0000
  Bi  Bi 0.69482 0.38478 0.63104 1.0000
  Bi  Bi 0.69482 0.38478 0.63104 1.0000
  Bi  Bi 0.68901 0.38187 0.00000 1.0000
  Bi  Bi 0.68901 0.38187 0.00000 1.0000
  Bi  Bi 0.68901 0.38187 0.00000 1.0000
  Bi  Bi 0.68901 0.38187 0.00000 1.0000
  Bi  Bi 0.73045 0.40259 0.36895 1.0000
  Bi  Bi 0.73045 0.40259 0.36895 1.0000
  Bi  Bi 0.71844 0.38478 0.63104 1.0000
  Bi  Bi 0.71844 0.38478 0.63104 1.0000
  Bi  Bi 0.71263 0.38187 0.00000 1.0000
  Bi  Bi 0.71263 0.38187 0.00000 1.0000
  Bi  Bi 0.71263 0.38187 0.00000 1.0000
  Bi  Bi 0.71263 0.38187 0.00000 1.0000
  Bi  Bi 0.75407 0.40259 0.36895 1.0000
  Bi  Bi 0.75407 0.40259 0.36895 1.0000
  Bi  Bi 0.74207 0.38478 0.63104 1.0000
  Bi  Bi 0.74207 0.38478 0.63104 1.0000
  Bi  Bi 0.73626 0.38187 0.00000 1.0000
  Bi  Bi 0.73626 0.38187 0.00000 1.0000
  Bi  Bi 0.73626 0.38187 0.00000 1.0000
  Bi  Bi 0.73626 0.38187 0.00000 1.0000
  Bi  Bi 0.77770 0.40259 0.36895 1.0000
  Bi  Bi 0.77770 0.40259 0.36895 1.0000
  Bi  Bi 0.76570 0.38478 0.63104 1.0000
  Bi  Bi 0.76570 0.38478 0.63104 1.0000
  Bi  Bi 0.75989 0.38187 0.00000 1.0000
  Bi  Bi 0.75989 0.38187 0.00000 1.0000
  Bi  Bi 0.75989 0.38187 0.00000 1.0000
  Bi  Bi 0.75989 0.38187 0.00000 1.0000
  Bi  Bi 0.80133 0.40259 0.36895 1.0000
  Bi  Bi 0.80133 0.40259 0.36895 1.0000
  Bi  Bi 0.78932 0.38478 0.63104 1.0000
  Bi  Bi 0.78932 0.38478 0.63104 1.0000
  Bi  Bi 0.78351 0.38187 0.00000 1.0000
  Bi  Bi 0.78351 0.38187 0.00000 1.0000
  Bi  Bi 0.78351 0.38187 0.00000 1.0000
  Bi  Bi 0.78351 0.38187 0.00000 1.0000
  Bi  Bi 0.82495 0.40259 0.36895 1.0000
  Bi  Bi 0.82495 0.40259 0.36895 1.0000
  Bi  Bi 0.81295 0.38478 0.63104 1.0000
  Bi  Bi 0.81295 0.38478 0.63104 1.0000
  Bi  Bi 0.80714 0.38187 0.00000 1.0000
  Bi  Bi 0.80714 0.38187 0.00000 1.0000
  Bi  Bi 0.80714 0.38187 0.00000 1.0000
  Bi  Bi 0.80714 0.38187 0.00000 1.0000
  Bi  Bi 0.84858 0.40259 0.36895 1.0000
  Bi  Bi 0.84858 0.40259 0.36895 1.0000
  Bi  Bi 0.83657 0.38478 0.63104 1.0000
  Bi  Bi 0.83657 0.38478 0.63104 1.0000
  Bi  Bi 0.83076 0.38187 0.00000 1.0000
  Bi  Bi 0.83076 0.38187 0.00000 1.0000
  Bi  Bi 0.83076 0.38187 0.00000 1.0000
  Bi  Bi 0.83076 0.38187 0.00000 1.0000
  Bi  Bi 0.87220 0.40259 0.36895 1.0000
  Bi  Bi 0.87220 0.40259 0.36895 1.0000
  Bi  Bi 0.86020 0.38478 0.63104 1.0000
  Bi  Bi 0.86020 0.38478 0.63104 1.0000
  Bi  Bi 0.85439 0.38187 0.00000 1.0000
  Bi  Bi 0.85439 0.38187 0.00000 1.0000
  Bi  Bi 0.85439 0.38187 0.00000 1.0000
  Bi  Bi 0.85439 0.38187 0.00000 1.0000
  Bi  Bi 0.89583 0.40259 0.36895 1.0000
  Bi  Bi 0.89583 0.40259 0.36895 1.0000
  Bi  Bi 0.88383 0.38478 0.63104 1.0000
  Bi  Bi 0.88383 0.38478 0.63104 1.0000
  Bi  Bi 0.87802 0.38187 0.00000 1.0000
  Bi  Bi 0.87802 0.38187 0.00000 1.0000
  Bi  Bi 0.87802 0.38187 0.00000 1.0000
  Bi  Bi 0.87802 0.38187 0.00000 1.0000
  Bi  Bi 0.91946 0.40259 0.36895 1.0000
  Bi  Bi 0.91946 0.40259 0.36895 1.0000
  Bi  Bi 0.90745 0.38478 0.63104 1.0000
  Bi  Bi 0.90745 0.38478 0.63104 1.0000
  Bi  Bi 0.90164 0.38187 0.00000 1.0000
  Bi  Bi 0.90164 0.38187 0.00000 1.0000
  Bi  Bi 0.90164 0.38187 0.00000 1.0000
  Bi  Bi 0.90164 0.38187 0.00000 1.0000
  Bi  Bi 0.94308 0.40259 0.36895 1.0000
  Bi  Bi 0.94308 0.40259 0.36895 1.0000
  Bi  Bi 0.93108 0.38478 0.63104 1.0000
  Bi  Bi 0.93108 0.38478 0.63104 1.0000
  Bi  Bi 0.92527 0.38187 0.00000 1.0000
  Bi  Bi 0.92527 0.38187 0.00000 1.0000
  Bi  Bi 0.92527 0.38187 0.00000 1.0000
  Bi  Bi 0.92527 0.38187 0.00000 1.0000
  Bi  Bi 0.96671 0.40259 0.36895 1.0000
  Bi  Bi 0.96671 0.40259 0.36895 1.0000
  Bi  Bi 0.95470 0.38478 0.63104 1.0000
  Bi  Bi 0.95470 0.38478 0.63104 1.0000
  Bi  Bi 0.94889 0.38187 0.00000 1.0000
  Bi  Bi 0.94889 0.38187 0.00000 1.0000
  Bi  Bi 0.94889 0.38187 0.00000 1.0000
  Bi  Bi 0.94889 0.38187 0.00000 1.0000
  Bi  Bi 0.04530 0.42622 0.36895 1.0000
  Bi  Bi 0.04530 0.42622 0.36895 1.0000
  Bi  Bi 0.03329 0.40840 0.63104 1.0000
  Bi  Bi 0.03329 0.40840 0.63104 1.0000
  Bi  Bi 0.02748 0.40550 0.00000 1.0000
  Bi  Bi 0.02748 0.40550 0.00000 1.0000
  Bi  Bi 0.02748 0.40550 0.00000 1.0000
  Bi  Bi 0.02748 0.40550 0.00000 1.0000
  Bi  Bi 0.06892 0.42622 0.36895 1.0000
  Bi  Bi 0.06892 0.42622 0.36895 1.0000
  Bi  Bi 0.05692 0.40840 0.63104 1.0000
  Bi  Bi 0.05692 0.40840 0.63104 1.0000
  Bi  Bi 0.05111 0.40550 0.00000 1.0000
  Bi  Bi 0.05111 0.40550 0.00000 1.0000
  Bi  Bi 0.05111 0.40550 0.00000 1.0000
  Bi  Bi 0.05111 0.40550 0.00000 1.0000
  Bi  Bi 0.09255 0.42622 0.36895 1.0000
  Bi  Bi 0.09255 0.42622 0.36895 1.0000
  Bi  Bi 0.08054 0.40840 0.63104 1.0000
  Bi  Bi 0.08054 0.40840 0.63104 1.0000
  Bi  Bi 0.07473 0.40550 0.00000 1.0000
  Bi  Bi 0.07473 0.40550 0.00000 1.0000
  Bi  Bi 0.07473 0.40550 0.00000 1.0000
  Bi  Bi 0.07473 0.40550 0.00000 1.0000
  Bi  Bi 0.11617 0.42622 0.36895 1.0000
  Bi  Bi 0.11617 0.42622 0.36895 1.0000
  Bi  Bi 0.10417 0.40840 0.63104 1.0000
  Bi  Bi 0.10417 0.40840 0.63104 1.0000
  Bi  Bi 0.09836 0.40550 0.00000 1.0000
  Bi  Bi 0.09836 0.40550 0.00000 1.0000
  Bi  Bi 0.09836 0.40550 0.00000 1.0000
  Bi  Bi 0.09836 0.40550 0.00000 1.0000
  Bi  Bi 0.13980 0.42622 0.36895 1.0000
  Bi  Bi 0.13980 0.42622 0.36895 1.0000
  Bi  Bi 0.12780 0.40840 0.63104 1.0000
  Bi  Bi 0.12780 0.40840 0.63104 1.0000
  Bi  Bi 0.12198 0.40550 0.00000 1.0000
  Bi  Bi 0.12198 0.40550 0.00000 1.0000
  Bi  Bi 0.12198 0.40550 0.00000 1.0000
  Bi  Bi 0.12198 0.40550 0.00000 1.0000
  Bi  Bi 0.16343 0.42622 0.36895 1.0000
  Bi  Bi 0.16343 0.42622 0.36895 1.0000
  Bi  Bi 0.15142 0.40840 0.63104 1.0000
  Bi  Bi 0.15142 0.40840 0.63104 1.0000
  Bi  Bi 0.14561 0.40550 0.00000 1.0000
  Bi  Bi 0.14561 0.40550 0.00000 1.0000
  Bi  Bi 0.14561 0.40550 0.00000 1.0000
  Bi  Bi 0.14561 0.40550 0.00000 1.0000
  Bi  Bi 0.18705 0.42622 0.36895 1.0000
  Bi  Bi 0.18705 0.42622 0.36895 1.0000
  Bi  Bi 0.17505 0.40840 0.63104 1.0000
  Bi  Bi 0.17505 0.40840 0.63104 1.0000
  Bi  Bi 0.16924 0.40550 0.00000 1.0000
  Bi  Bi 0.16924 0.40550 0.00000 1.0000
  Bi  Bi 0.16924 0.40550 0.00000 1.0000
  Bi  Bi 0.16924 0.40550 0.00000 1.0000
  Bi  Bi 0.21068 0.42622 0.36895 1.0000
  Bi  Bi 0.21068 0.42622 0.36895 1.0000
  Bi  Bi 0.19867 0.40840 0.63104 1.0000
  Bi  Bi 0.19867 0.40840 0.63104 1.0000
  Bi  Bi 0.19286 0.40550 0.00000 1.0000
  Bi  Bi 0.19286 0.40550 0.00000 1.0000
  Bi  Bi 0.19286 0.40550 0.00000 1.0000
  Bi  Bi 0.19286 0.40550 0.00000 1.0000
  Bi  Bi 0.23430 0.42622 0.36895 1.0000
  Bi  Bi 0.23430 0.42622 0.36895 1.0000
  Bi  Bi 0.22230 0.40840 0.63104 1.0000
  Bi  Bi 0.22230 0.40840 0.63104 1.0000
  Bi  Bi 0.21649 0.40550 0.00000 1.0000
  Bi  Bi 0.21649 0.40550 0.00000 1.0000
  Bi  Bi 0.21649 0.40550 0.00000 1.0000
  Bi  Bi 0.21649 0.40550 0.00000 1.0000
  Bi  Bi 0.25793 0.42622 0.36895 1.0000
  Bi  Bi 0.25793 0.42622 0.36895 1.0000
  Bi  Bi 0.24593 0.40840 0.63104 1.0000
  Bi  Bi 0.24593 0.40840 0.63104 1.0000
  Bi  Bi 0.24011 0.40550 0.00000 1.0000
  Bi  Bi 0.24011 0.40550 0.00000 1.0000
  Bi  Bi 0.24011 0.40550 0.00000 1.0000
  Bi  Bi 0.24011 0.40550 0.00000 1.0000
  Bi  Bi 0.28156 0.42622 0.36895 1.0000
  Bi  Bi 0.28156 0.42622 0.36895 1.0000
  Bi  Bi 0.26955 0.40840 0.63104 1.0000
  Bi  Bi 0.26955 0.40840 0.63104 1.0000
  Bi  Bi 0.26374 0.40550 0.00000 1.0000
  Bi  Bi 0.26374 0.40550 0.00000 1.0000
  Bi  Bi 0.26374 0.40550 0.00000 1.0000
  Bi  Bi 0.26374 0.40550 0.00000 1.0000
  Bi  Bi 0.30518 0.42622 0.36895 1.0000
  Bi  Bi 0.30518 0.42622 0.36895 1.0000
  Bi  Bi 0.29318 0.40840 0.63104 1.0000
  Bi  Bi 0.29318 0.40840 0.63104 1.0000
  Bi  Bi 0.28737 0.40550 0.00000 1.0000
  Bi  Bi 0.28737 0.40550 0.00000 1.0000
  Bi  Bi 0.28737 0.40550 0.00000 1.0000
  Bi  Bi 0.28737 0.40550 0.00000 1.0000
  Bi  Bi 0.32881 0.42622 0.36895 1.0000
  Bi  Bi 0.32881 0.42622 0.36895 1.0000
  Bi  Bi 0.31680 0.40840 0.63104 1.0000
  Bi  Bi 0.31680 0.40840 0.63104 1.0000
  Bi  Bi 0.31099 0.40550 0.00000 1.0000
  Bi  Bi 0.31099 0.40550 0.00000 1.0000
  Bi  Bi 0.31099 0.40550 0.00000 1.0000
  Bi  Bi 0.31099 0.40550 0.00000 1.0000
  Bi  Bi 0.35243 0.42622 0.36895 1.0000
  Bi  Bi 0.35243 0.42622 0.36895 1.0000
  Bi  Bi 0.34043 0.40840 0.63104 1.0000
  Bi  Bi 0.34043 0.40840 0.63104 1.0000
  Bi  Bi 0.33462 0.40550 0.00000 1.0000
  Bi  Bi 0.33462 0.40550 0.00000 1.0000
  Bi  Bi 0.33462 0.40550 0.00000 1.0000
  Bi  Bi 0.33462 0.40550 0.00000 1.0000
  Bi  Bi 0.37606 0.42622 0.36895 1.0000
  Bi  Bi 0.37606 0.42622 0.36895 1.0000
  Bi  Bi 0.36406 0.40840 0.63104 1.0000
  Bi  Bi 0.36406 0.40840 0.63104 1.0000
  Bi  Bi 0.35824 0.40550 0.00000 1.0000
  Bi  Bi 0.35824 0.40550 0.00000 1.0000
  Bi  Bi 0.35824 0.40550 0.00000 1.0000
  Bi  Bi 0.35824 0.40550 0.00000 1.0000
  Bi  Bi 0.39968 0.42622 0.36895 1.0000
  Bi  Bi 0.39968 0.42622 0.36895 1.0000
  Bi  Bi 0.38768 0.40840 0.63104 1.0000
  Bi  Bi 0.38768 0.40840 0.63104 1.0000
  Bi  Bi 0.38187 0.40550 0.00000 1.0000
  Bi  Bi 0.38187 0.40550 0.00000 1.0000
  Bi  Bi 0.38187 0.40550 0.00000 1.0000
  Bi  Bi 0.38187 0.40550 0.00000 1.0000
  Bi  Bi 0.42331 0.42622 0.36895 1.0000
  Bi  Bi 0.42331 0.42622 0.36895 1.0000
  Bi  Bi 0.41131 0.40840 0.63104 1.0000
  Bi  Bi 0.41131 0.40840 0.63104 1.0000
  Bi  Bi 0.40550 0.40550 0.00000 1.0000
  Bi  Bi 0.40550 0.40550 0.00000 1.0000
  Bi  Bi 0.40550 0.40550 0.00000 1.0000
  Bi  Bi 0.40550 0.40550 0.00000 1.0000
  Bi  Bi 0.44694 0.42622 0.36895 1.0000
  Bi  Bi 0.44694 0.42622 0.36895 1.0000
  Bi  Bi 0.43493 0.40840 0.63104 1.0000
  Bi  Bi 0.43493 0.40840 0.63104 1.0000
  Bi  Bi 0.42912 0.40550 0.00000 1.0000
  Bi  Bi 0.42912 0.40550 0.00000 1.0000
  Bi  Bi 0.42912 0.40550 0.00000 1.0000
  Bi  Bi 0.42912 0.40550 0.00000 1.0000
  Bi  Bi 0.47056 0.42622 0.36895 1.0000
  Bi  Bi 0.47056 0.42622 0.36895 1.0000
  Bi  Bi 0.45856 0.40840 0.63104 1.0000
  Bi  Bi 0.45856 0.40840 0.63104 1.0000
  Bi  Bi 0.45275 0.40550 0.00000 1.0000
  Bi  Bi 0.45275 0.40550 0.00000 1.0000
  Bi  Bi 0.45275 0.40550 0.00000 1.0000
  Bi  Bi 0.45275 0.40550 0.00000 1.0000
  Bi  Bi 0.49419 0.42622 0.36895 1.0000
  Bi  Bi 0.49419 0.42622 0.36895 1.0000
  Bi  Bi 0.48219 0.40840 0.63104 1.0000
  Bi  Bi 0.48219 0.40840 0.63104 1.0000
  Bi  Bi 0.47637 0.40550 0.00000 1.0000
  Bi  Bi 0.47637 0.40550 0.00000 1.0000
  Bi  Bi 0.47637 0.40550 0.00000 1.0000
  Bi  Bi 0.47637 0.40550 0.00000 1.0000
  Bi  Bi 0.51781 0.42622 0.36895 1.0000
  Bi  Bi 0.51781 0.42622 0.36895 1.0000
  Bi  Bi 0.50581 0.40840 0.63104 1.0000
  Bi  Bi 0.50581 0.40840 0.63104 1.0000
  Bi  Bi 0.50000 0.40550 0.00000 1.0000
  Bi  Bi 0.50000 0.40550 0.00000 1.0000
  Bi  Bi 0.50000 0.40550 0.00000 1.0000
  Bi  Bi 0.50000 0.40550 0.00000 1.0000
  Bi  Bi 0.54144 0.42622 0.36895 1.0000
  Bi  Bi 0.54144 0.42622 0.36895 1.0000
  Bi  Bi 0.52944 0.40840 0.63104 1.0000
  Bi  Bi 0.52944 0.40840 0.63104 1.0000
  Bi  Bi 0.52363 0.40550 0.00000 1.0000
  Bi  Bi 0.52363 0.40550 0.00000 1.0000
  Bi  Bi 0.52363 0.40550 0.00000 1.0000
  Bi  Bi 0.52363 0.40550 0.00000 1.0000
  Bi  Bi 0.56507 0.42622 0.36895 1.0000
  Bi  Bi 0.56507 0.42622 0.36895 1.0000
  Bi  Bi 0.55306 0.40840 0.63104 1.0000
  Bi  Bi 0.55306 0.40840 0.63104 1.0000
  Bi  Bi 0.54725 0.40550 0.00000 1.0000
  Bi  Bi 0.54725 0.40550 0.00000 1.0000
  Bi  Bi 0.54725 0.40550 0.00000 1.0000
  Bi  Bi 0.54725 0.40550 0.00000 1.0000
  Bi  Bi 0.58869 0.42622 0.36895 1.0000
  Bi  Bi 0.58869 0.42622 0.36895 1.0000
  Bi  Bi 0.57669 0.40840 0.63104 1.0000
  Bi  Bi 0.57669 0.40840 0.63104 1.0000
  Bi  Bi 0.57088 0.40550 0.00000 1.0000
  Bi  Bi 0.57088 0.40550 0.00000 1.0000
  Bi  Bi 0.57088 0.40550 0.00000 1.0000
  Bi  Bi 0.57088 0.40550 0.00000 1.0000
  Bi  Bi 0.61232 0.42622 0.36895 1.0000
  Bi  Bi 0.61232 0.42622 0.36895 1.0000
  Bi  Bi 0.60032 0.40840 0.63104 1.0000
  Bi  Bi 0.60032 0.40840 0.63104 1.0000
  Bi  Bi 0.59450 0.40550 0.00000 1.0000
  Bi  Bi 0.59450 0.40550 0.00000 1.0000
  Bi  Bi 0.59450 0.40550 0.00000 1.0000
  Bi  Bi 0.59450 0.40550 0.00000 1.0000
  Bi  Bi 0.63594 0.42622 0.36895 1.0000
  Bi  Bi 0.63594 0.42622 0.36895 1.0000
  Bi  Bi 0.62394 0.40840 0.63104 1.0000
  Bi  Bi 0.62394 0.40840 0.63104 1.0000
  Bi  Bi 0.61813 0.40550 0.00000 1.0000
  Bi  Bi 0.61813 0.40550 0.00000 1.0000
  Bi  Bi 0.61813 0.40550 0.00000 1.0000
  Bi  Bi 0.61813 0.40550 0.00000 1.0000
  Bi  Bi 0.65957 0.42622 0.36895 1.0000
  Bi  Bi 0.65957 0.42622 0.36895 1.0000
  Bi  Bi 0.64757 0.40840 0.63104 1.0000
  Bi  Bi 0.64757 0.40840 0.63104 1.0000
  Bi  Bi 0.64176 0.40550 0.00000 1.0000
  Bi  Bi 0.64176 0.40550 0.00000 1.0000
  Bi  Bi 0.64176 0.40550 0.00000 1.0000
  Bi  Bi 0.64176 0.40550 0.00000 1.0000
  Bi  Bi 0.68320 0.42622 0.36895 1.0000
  Bi  Bi 0.68320 0.42622 0.36895 1.0000
  Bi  Bi 0.67119 0.40840 0.63104 1.0000
  Bi  Bi 0.67119 0.40840 0.63104 1.0000
  Bi  Bi 0.66538 0.40550 0.00000 1.0000
  Bi  Bi 0.66538 0.40550 0.00000 1.0000
  Bi  Bi 0.66538 0.40550 0.00000 1.0000
  Bi  Bi 0.66538 0.40550 0.00000 1.0000
  Bi  Bi 0.70682 0.42622 0.36895 1.0000
  Bi  Bi 0.70682 0.42622 0.36895 1.0000
  Bi  Bi 0.69482 0.40840 0.63104 1.0000
  Bi  Bi 0.69482 0.40840 0.63104 1.0000
  Bi  Bi 0.68901 0.40550 0.00000 1.0000
  Bi  Bi 0.68901 0.40550 0.00000 1.0000
  Bi  Bi 0.68901 0.40550 0.00000 1.0000
  Bi  Bi 0.68901 0.40550 0.00000 1.0000
  Bi  Bi 0.73045 0.42622 0.36895 1.0000
  Bi  Bi 0.73045 0.42622 0.36895 1.0000
  Bi  Bi 0.71844 0.40840 0.63104 1.0000
  Bi  Bi 0.71844 0.40840 0.63104 1.0000
  Bi  Bi 0.71263 0.40550 0.00000 1.0000
  Bi  Bi 0.71263 0.40550 0.00000 1.0000
  Bi  Bi 0.71263 0.40550 0.00000 1.0000
  Bi  Bi 0.71263 0.40550 0.00000 1.0000
  Bi  Bi 0.75407 0.42622 0.36895 1.0000
  Bi  Bi 0.75407 0.42622 0.36895 1.0000
  Bi  Bi 0.74207 0.40840 0.63104 1.0000
  Bi  Bi 0.74207 0.40840 0.63104 1.0000
  Bi  Bi 0.73626 0.40550 0.00000 1.0000
  Bi  Bi 0.73626 0.40550 0.00000 1.0000
  Bi  Bi 0.73626 0.40550 0.00000 1.0000
  Bi  Bi 0.73626 0.40550 0.00000 1.0000
  Bi  Bi 0.77770 0.42622 0.36895 1.0000
  Bi  Bi 0.77770 0.42622 0.36895 1.0000
  Bi  Bi 0.76570 0.40840 0.63104 1.0000
  Bi  Bi 0.76570 0.40840 0.63104 1.0000
  Bi  Bi 0.75989 0.40550 0.00000 1.0000
  Bi  Bi 0.75989 0.40550 0.00000 1.0000
  Bi  Bi 0.75989 0.40550 0.00000 1.0000
  Bi  Bi 0.75989 0.40550 0.00000 1.0000
  Bi  Bi 0.80133 0.42622 0.36895 1.0000
  Bi  Bi 0.80133 0.42622 0.36895 1.0000
  Bi  Bi 0.78932 0.40840 0.63104 1.0000
  Bi  Bi 0.78932 0.40840 0.63104 1.0000
  Bi  Bi 0.78351 0.40550 0.00000 1.0000
  Bi  Bi 0.78351 0.40550 0.00000 1.0000
  Bi  Bi 0.78351 0.40550 0.00000 1.0000
  Bi  Bi 0.78351 0.40550 0.00000 1.0000
  Bi  Bi 0.82495 0.42622 0.36895 1.0000
  Bi  Bi 0.82495 0.42622 0.36895 1.0000
  Bi  Bi 0.81295 0.40840 0.63104 1.0000
  Bi  Bi 0.81295 0.40840 0.63104 1.0000
  Bi  Bi 0.80714 0.40550 0.00000 1.0000
  Bi  Bi 0.80714 0.40550 0.00000 1.0000
  Bi  Bi 0.80714 0.40550 0.00000 1.0000
  Bi  Bi 0.80714 0.40550 0.00000 1.0000
  Bi  Bi 0.84858 0.42622 0.36895 1.0000
  Bi  Bi 0.84858 0.42622 0.36895 1.0000
  Bi  Bi 0.83657 0.40840 0.63104 1.0000
  Bi  Bi 0.83657 0.40840 0.63104 1.0000
  Bi  Bi 0.83076 0.40550 0.00000 1.0000
  Bi  Bi 0.83076 0.40550 0.00000 1.0000
  Bi  Bi 0.83076 0.40550 0.00000 1.0000
  Bi  Bi 0.83076 0.40550 0.00000 1.0000
  Bi  Bi 0.87220 0.42622 0.36895 1.0000
  Bi  Bi 0.87220 0.42622 0.36895 1.0000
  Bi  Bi 0.86020 0.40840 0.63104 1.0000
  Bi  Bi 0.86020 0.40840 0.63104 1.0000
  Bi  Bi 0.85439 0.40550 0.00000 1.0000
  Bi  Bi 0.85439 0.40550 0.00000 1.0000
  Bi  Bi 0.85439 0.40550 0.00000 1.0000
  Bi  Bi 0.85439 0.40550 0.00000 1.0000
  Bi  Bi 0.89583 0.42622 0.36895 1.0000
  Bi  Bi 0.89583 0.42622 0.36895 1.0000
  Bi  Bi 0.88383 0.40840 0.63104 1.0000
  Bi  Bi 0.88383 0.40840 0.63104 1.0000
  Bi  Bi 0.87802 0.40550 0.00000 1.0000
  Bi  Bi 0.87802 0.40550 0.00000 1.0000
  Bi  Bi 0.87802 0.40550 0.00000 1.0000
  Bi  Bi 0.87802 0.40550 0.00000 1.0000
  Bi  Bi 0.91946 0.42622 0.36895 1.0000
  Bi  Bi 0.91946 0.42622 0.36895 1.0000
  Bi  Bi 0.90745 0.40840 0.63104 1.0000
  Bi  Bi 0.90745 0.40840 0.63104 1.0000
  Bi  Bi 0.90164 0.40550 0.00000 1.0000
  Bi  Bi 0.90164 0.40550 0.00000 1.0000
  Bi  Bi 0.90164 0.40550 0.00000 1.0000
  Bi  Bi 0.90164 0.40550 0.00000 1.0000
  Bi  Bi 0.94308 0.42622 0.36895 1.0000
  Bi  Bi 0.94308 0.42622 0.36895 1.0000
  Bi  Bi 0.93108 0.40840 0.63104 1.0000
  Bi  Bi 0.93108 0.40840 0.63104 1.0000
  Bi  Bi 0.92527 0.40550 0.00000 1.0000
  Bi  Bi 0.92527 0.40550 0.00000 1.0000
  Bi  Bi 0.92527 0.40550 0.00000 1.0000
  Bi  Bi 0.92527 0.40550 0.00000 1.0000
  Bi  Bi 0.96671 0.42622 0.36895 1.0000
  Bi  Bi 0.96671 0.42622 0.36895 1.0000
  Bi  Bi 0.95470 0.40840 0.63104 1.0000
  Bi  Bi 0.95470 0.40840 0.63104 1.0000
  Bi  Bi 0.94889 0.40550 0.00000 1.0000
  Bi  Bi 0.94889 0.40550 0.00000 1.0000
  Bi  Bi 0.94889 0.40550 0.00000 1.0000
  Bi  Bi 0.94889 0.40550 0.00000 1.0000
  Bi  Bi 0.04530 0.44984 0.36895 1.0000
  Bi  Bi 0.04530 0.44984 0.36895 1.0000
  Bi  Bi 0.03329 0.43203 0.63104 1.0000
  Bi  Bi 0.03329 0.43203 0.63104 1.0000
  Bi  Bi 0.02748 0.42912 0.00000 1.0000
  Bi  Bi 0.02748 0.42912 0.00000 1.0000
  Bi  Bi 0.02748 0.42912 0.00000 1.0000
  Bi  Bi 0.02748 0.42912 0.00000 1.0000
  Bi  Bi 0.06892 0.44984 0.36895 1.0000
  Bi  Bi 0.06892 0.44984 0.36895 1.0000
  Bi  Bi 0.05692 0.43203 0.63104 1.0000
  Bi  Bi 0.05692 0.43203 0.63104 1.0000
  Bi  Bi 0.05111 0.42912 0.00000 1.0000
  Bi  Bi 0.05111 0.42912 0.00000 1.0000
  Bi  Bi 0.05111 0.42912 0.00000 1.0000
  Bi  Bi 0.05111 0.42912 0.00000 1.0000
  Bi  Bi 0.09255 0.44984 0.36895 1.0000
  Bi  Bi 0.09255 0.44984 0.36895 1.0000
  Bi  Bi 0.08054 0.43203 0.63104 1.0000
  Bi  Bi 0.08054 0.43203 0.63104 1.0000
  Bi  Bi 0.07473 0.42912 0.00000 1.0000
  Bi  Bi 0.07473 0.42912 0.00000 1.0000
  Bi  Bi 0.07473 0.42912 0.00000 1.0000
  Bi  Bi 0.07473 0.42912 0.00000 1.0000
  Bi  Bi 0.11617 0.44984 0.36895 1.0000
  Bi  Bi 0.11617 0.44984 0.36895 1.0000
  Bi  Bi 0.10417 0.43203 0.63104 1.0000
  Bi  Bi 0.10417 0.43203 0.63104 1.0000
  Bi  Bi 0.09836 0.42912 0.00000 1.0000
  Bi  Bi 0.09836 0.42912 0.00000 1.0000
  Bi  Bi 0.09836 0.42912 0.00000 1.0000
  Bi  Bi 0.09836 0.42912 0.00000 1.0000
  Bi  Bi 0.13980 0.44984 0.36895 1.0000
  Bi  Bi 0.13980 0.44984 0.36895 1.0000
  Bi  Bi 0.12780 0.43203 0.63104 1.0000
  Bi  Bi 0.12780 0.43203 0.63104 1.0000
  Bi  Bi 0.12198 0.42912 0.00000 1.0000
  Bi  Bi 0.12198 0.42912 0.00000 1.0000
  Bi  Bi 0.12198 0.42912 0.00000 1.0000
  Bi  Bi 0.12198 0.42912 0.00000 1.0000
  Bi  Bi 0.16343 0.44984 0.36895 1.0000
  Bi  Bi 0.16343 0.44984 0.36895 1.0000
  Bi  Bi 0.15142 0.43203 0.63104 1.0000
  Bi  Bi 0.15142 0.43203 0.63104 1.0000
  Bi  Bi 0.14561 0.42912 0.00000 1.0000
  Bi  Bi 0.14561 0.42912 0.00000 1.0000
  Bi  Bi 0.14561 0.42912 0.00000 1.0000
  Bi  Bi 0.14561 0.42912 0.00000 1.0000
  Bi  Bi 0.18705 0.44984 0.36895 1.0000
  Bi  Bi 0.18705 0.44984 0.36895 1.0000
  Bi  Bi 0.17505 0.43203 0.63104 1.0000
  Bi  Bi 0.17505 0.43203 0.63104 1.0000
  Bi  Bi 0.16924 0.42912 0.00000 1.0000
  Bi  Bi 0.16924 0.42912 0.00000 1.0000
  Bi  Bi 0.16924 0.42912 0.00000 1.0000
  Bi  Bi 0.16924 0.42912 0.00000 1.0000
  Bi  Bi 0.21068 0.44984 0.36895 1.0000
  Bi  Bi 0.21068 0.44984 0.36895 1.0000
  Bi  Bi 0.19867 0.43203 0.63104 1.0000
  Bi  Bi 0.19867 0.43203 0.63104 1.0000
  Bi  Bi 0.19286 0.42912 0.00000 1.0000
  Bi  Bi 0.19286 0.42912 0.00000 1.0000
  Bi  Bi 0.19286 0.42912 0.00000 1.0000
  Bi  Bi 0.19286 0.42912 0.00000 1.0000
  Bi  Bi 0.23430 0.44984 0.36895 1.0000
  Bi  Bi 0.23430 0.44984 0.36895 1.0000
  Bi  Bi 0.22230 0.43203 0.63104 1.0000
  Bi  Bi 0.22230 0.43203 0.63104 1.0000
  Bi  Bi 0.21649 0.42912 0.00000 1.0000
  Bi  Bi 0.21649 0.42912 0.00000 1.0000
  Bi  Bi 0.21649 0.42912 0.00000 1.0000
  Bi  Bi 0.21649 0.42912 0.00000 1.0000
  Bi  Bi 0.25793 0.44984 0.36895 1.0000
  Bi  Bi 0.25793 0.44984 0.36895 1.0000
  Bi  Bi 0.24593 0.43203 0.63104 1.0000
  Bi  Bi 0.24593 0.43203 0.63104 1.0000
  Bi  Bi 0.24011 0.42912 0.00000 1.0000
  Bi  Bi 0.24011 0.42912 0.00000 1.0000
  Bi  Bi 0.24011 0.42912 0.00000 1.0000
  Bi  Bi 0.24011 0.42912 0.00000 1.0000
  Bi  Bi 0.28156 0.44984 0.36895 1.0000
  Bi  Bi 0.28156 0.44984 0.36895 1.0000
  Bi  Bi 0.26955 0.43203 0.63104 1.0000
  Bi  Bi 0.26955 0.43203 0.63104 1.0000
  Bi  Bi 0.26374 0.42912 0.00000 1.0000
  Bi  Bi 0.26374 0.42912 0.00000 1.0000
  Bi  Bi 0.26374 0.42912 0.00000 1.0000
  Bi  Bi 0.26374 0.42912 0.00000 1.0000
  Bi  Bi 0.30518 0.44984 0.36895 1.0000
  Bi  Bi 0.30518 0.44984 0.36895 1.0000
  Bi  Bi 0.29318 0.43203 0.63104 1.0000
  Bi  Bi 0.29318 0.43203 0.63104 1.0000
  Bi  Bi 0.28737 0.42912 0.00000 1.0000
  Bi  Bi 0.28737 0.42912 0.00000 1.0000
  Bi  Bi 0.28737 0.42912 0.00000 1.0000
  Bi  Bi 0.28737 0.42912 0.00000 1.0000
  Bi  Bi 0.32881 0.44984 0.36895 1.0000
  Bi  Bi 0.32881 0.44984 0.36895 1.0000
  Bi  Bi 0.31680 0.43203 0.63104 1.0000
  Bi  Bi 0.31680 0.43203 0.63104 1.0000
  Bi  Bi 0.31099 0.42912 0.00000 1.0000
  Bi  Bi 0.31099 0.42912 0.00000 1.0000
  Bi  Bi 0.31099 0.42912 0.00000 1.0000
  Bi  Bi 0.31099 0.42912 0.00000 1.0000
  Bi  Bi 0.35243 0.44984 0.36895 1.0000
  Bi  Bi 0.35243 0.44984 0.36895 1.0000
  Bi  Bi 0.34043 0.43203 0.63104 1.0000
  Bi  Bi 0.34043 0.43203 0.63104 1.0000
  Bi  Bi 0.33462 0.42912 0.00000 1.0000
  Bi  Bi 0.33462 0.42912 0.00000 1.0000
  Bi  Bi 0.33462 0.42912 0.00000 1.0000
  Bi  Bi 0.33462 0.42912 0.00000 1.0000
  Bi  Bi 0.37606 0.44984 0.36895 1.0000
  Bi  Bi 0.37606 0.44984 0.36895 1.0000
  Bi  Bi 0.36406 0.43203 0.63104 1.0000
  Bi  Bi 0.36406 0.43203 0.63104 1.0000
  Bi  Bi 0.35824 0.42912 0.00000 1.0000
  Bi  Bi 0.35824 0.42912 0.00000 1.0000
  Bi  Bi 0.35824 0.42912 0.00000 1.0000
  Bi  Bi 0.35824 0.42912 0.00000 1.0000
  Bi  Bi 0.39968 0.44984 0.36895 1.0000
  Bi  Bi 0.39968 0.44984 0.36895 1.0000
  Bi  Bi 0.38768 0.43203 0.63104 1.0000
  Bi  Bi 0.38768 0.43203 0.63104 1.0000
  Bi  Bi 0.38187 0.42912 0.00000 1.0000
  Bi  Bi 0.38187 0.42912 0.00000 1.0000
  Bi  Bi 0.38187 0.42912 0.00000 1.0000
  Bi  Bi 0.38187 0.42912 0.00000 1.0000
  Bi  Bi 0.42331 0.44984 0.36895 1.0000
  Bi  Bi 0.42331 0.44984 0.36895 1.0000
  Bi  Bi 0.41131 0.43203 0.63104 1.0000
  Bi  Bi 0.41131 0.43203 0.63104 1.0000
  Bi  Bi 0.40550 0.42912 0.00000 1.0000
  Bi  Bi 0.40550 0.42912 0.00000 1.0000
  Bi  Bi 0.40550 0.42912 0.00000 1.0000
  Bi  Bi 0.40550 0.42912 0.00000 1.0000
  Bi  Bi 0.44694 0.44984 0.36895 1.0000
  Bi  Bi 0.44694 0.44984 0.36895 1.0000
  Bi  Bi 0.43493 0.43203 0.63104 1.0000
  Bi  Bi 0.43493 0.43203 0.63104 1.0000
  Bi  Bi 0.42912 0.42912 0.00000 1.0000
  Bi  Bi 0.42912 0.42912 0.00000 1.0000
  Bi  Bi 0.42912 0.42912 0.00000 1.0000
  Bi  Bi 0.42912 0.42912 0.00000 1.0000
  Bi  Bi 0.47056 0.44984 0.36895 1.0000
  Bi  Bi 0.47056 0.44984 0.36895 1.0000
  Bi  Bi 0.45856 0.43203 0.63104 1.0000
  Bi  Bi 0.45856 0.43203 0.63104 1.0000
  Bi  Bi 0.45275 0.42912 0.00000 1.0000
  Bi  Bi 0.45275 0.42912 0.00000 1.0000
  Bi  Bi 0.45275 0.42912 0.00000 1.0000
  Bi  Bi 0.45275 0.42912 0.00000 1.0000
  Bi  Bi 0.49419 0.44984 0.36895 1.0000
  Bi  Bi 0.49419 0.44984 0.36895 1.0000
  Bi  Bi 0.48219 0.43203 0.63104 1.0000
  Bi  Bi 0.48219 0.43203 0.63104 1.0000
  Bi  Bi 0.47637 0.42912 0.00000 1.0000
  Bi  Bi 0.47637 0.42912 0.00000 1.0000
  Bi  Bi 0.47637 0.42912 0.00000 1.0000
  Bi  Bi 0.47637 0.42912 0.00000 1.0000
  Bi  Bi 0.51781 0.44984 0.36895 1.0000
  Bi  Bi 0.51781 0.44984 0.36895 1.0000
  Bi  Bi 0.50581 0.43203 0.63104 1.0000
  Bi  Bi 0.50581 0.43203 0.63104 1.0000
  Bi  Bi 0.50000 0.42912 0.00000 1.0000
  Bi  Bi 0.50000 0.42912 0.00000 1.0000
  Bi  Bi 0.50000 0.42912 0.00000 1.0000
  Bi  Bi 0.50000 0.42912 0.00000 1.0000
  Bi  Bi 0.54144 0.44984 0.36895 1.0000
  Bi  Bi 0.54144 0.44984 0.36895 1.0000
  Bi  Bi 0.52944 0.43203 0.63104 1.0000
  Bi  Bi 0.52944 0.43203 0.63104 1.0000
  Bi  Bi 0.52363 0.42912 0.00000 1.0000
  Bi  Bi 0.52363 0.42912 0.00000 1.0000
  Bi  Bi 0.52363 0.42912 0.00000 1.0000
  Bi  Bi 0.52363 0.42912 0.00000 1.0000
  Bi  Bi 0.56507 0.44984 0.36895 1.0000
  Bi  Bi 0.56507 0.44984 0.36895 1.0000
  Bi  Bi 0.55306 0.43203 0.63104 1.0000
  Bi  Bi 0.55306 0.43203 0.63104 1.0000
  Bi  Bi 0.54725 0.42912 0.00000 1.0000
  Bi  Bi 0.54725 0.42912 0.00000 1.0000
  Bi  Bi 0.54725 0.42912 0.00000 1.0000
  Bi  Bi 0.54725 0.42912 0.00000 1.0000
  Bi  Bi 0.58869 0.44984 0.36895 1.0000
  Bi  Bi 0.58869 0.44984 0.36895 1.0000
  Bi  Bi 0.57669 0.43203 0.63104 1.0000
  Bi  Bi 0.57669 0.43203 0.63104 1.0000
  Bi  Bi 0.57088 0.42912 0.00000 1.0000
  Bi  Bi 0.57088 0.42912 0.00000 1.0000
  Bi  Bi 0.57088 0.42912 0.00000 1.0000
  Bi  Bi 0.57088 0.42912 0.00000 1.0000
  Bi  Bi 0.61232 0.44984 0.36895 1.0000
  Bi  Bi 0.61232 0.44984 0.36895 1.0000
  Bi  Bi 0.60032 0.43203 0.63104 1.0000
  Bi  Bi 0.60032 0.43203 0.63104 1.0000
  Bi  Bi 0.59450 0.42912 0.00000 1.0000
  Bi  Bi 0.59450 0.42912 0.00000 1.0000
  Bi  Bi 0.59450 0.42912 0.00000 1.0000
  Bi  Bi 0.59450 0.42912 0.00000 1.0000
  Bi  Bi 0.63594 0.44984 0.36895 1.0000
  Bi  Bi 0.63594 0.44984 0.36895 1.0000
  Bi  Bi 0.62394 0.43203 0.63104 1.0000
  Bi  Bi 0.62394 0.43203 0.63104 1.0000
  Bi  Bi 0.61813 0.42912 0.00000 1.0000
  Bi  Bi 0.61813 0.42912 0.00000 1.0000
  Bi  Bi 0.61813 0.42912 0.00000 1.0000
  Bi  Bi 0.61813 0.42912 0.00000 1.0000
  Bi  Bi 0.65957 0.44984 0.36895 1.0000
  Bi  Bi 0.65957 0.44984 0.36895 1.0000
  Bi  Bi 0.64757 0.43203 0.63104 1.0000
  Bi  Bi 0.64757 0.43203 0.63104 1.0000
  Bi  Bi 0.64176 0.42912 0.00000 1.0000
  Bi  Bi 0.64176 0.42912 0.00000 1.0000
  Bi  Bi 0.64176 0.42912 0.00000 1.0000
  Bi  Bi 0.64176 0.42912 0.00000 1.0000
  Bi  Bi 0.68320 0.44984 0.36895 1.0000
  Bi  Bi 0.68320 0.44984 0.36895 1.0000
  Bi  Bi 0.67119 0.43203 0.63104 1.0000
  Bi  Bi 0.67119 0.43203 0.63104 1.0000
  Bi  Bi 0.66538 0.42912 0.00000 1.0000
  Bi  Bi 0.66538 0.42912 0.00000 1.0000
  Bi  Bi 0.66538 0.42912 0.00000 1.0000
  Bi  Bi 0.66538 0.42912 0.00000 1.0000
  Bi  Bi 0.70682 0.44984 0.36895 1.0000
  Bi  Bi 0.70682 0.44984 0.36895 1.0000
  Bi  Bi 0.69482 0.43203 0.63104 1.0000
  Bi  Bi 0.69482 0.43203 0.63104 1.0000
  Bi  Bi 0.68901 0.42912 0.00000 1.0000
  Bi  Bi 0.68901 0.42912 0.00000 1.0000
  Bi  Bi 0.68901 0.42912 0.00000 1.0000
  Bi  Bi 0.68901 0.42912 0.00000 1.0000
  Bi  Bi 0.73045 0.44984 0.36895 1.0000
  Bi  Bi 0.73045 0.44984 0.36895 1.0000
  Bi  Bi 0.71844 0.43203 0.63104 1.0000
  Bi  Bi 0.71844 0.43203 0.63104 1.0000
  Bi  Bi 0.71263 0.42912 0.00000 1.0000
  Bi  Bi 0.71263 0.42912 0.00000 1.0000
  Bi  Bi 0.71263 0.42912 0.00000 1.0000
  Bi  Bi 0.71263 0.42912 0.00000 1.0000
  Bi  Bi 0.75407 0.44984 0.36895 1.0000
  Bi  Bi 0.75407 0.44984 0.36895 1.0000
  Bi  Bi 0.74207 0.43203 0.63104 1.0000
  Bi  Bi 0.74207 0.43203 0.63104 1.0000
  Bi  Bi 0.73626 0.42912 0.00000 1.0000
  Bi  Bi 0.73626 0.42912 0.00000 1.0000
  Bi  Bi 0.73626 0.42912 0.00000 1.0000
  Bi  Bi 0.73626 0.42912 0.00000 1.0000
  Bi  Bi 0.77770 0.44984 0.36895 1.0000
  Bi  Bi 0.77770 0.44984 0.36895 1.0000
  Bi  Bi 0.76570 0.43203 0.63104 1.0000
  Bi  Bi 0.76570 0.43203 0.63104 1.0000
  Bi  Bi 0.75989 0.42912 0.00000 1.0000
  Bi  Bi 0.75989 0.42912 0.00000 1.0000
  Bi  Bi 0.75989 0.42912 0.00000 1.0000
  Bi  Bi 0.75989 0.42912 0.00000 1.0000
  Bi  Bi 0.80133 0.44984 0.36895 1.0000
  Bi  Bi 0.80133 0.44984 0.36895 1.0000
  Bi  Bi 0.78932 0.43203 0.63104 1.0000
  Bi  Bi 0.78932 0.43203 0.63104 1.0000
  Bi  Bi 0.78351 0.42912 0.00000 1.0000
  Bi  Bi 0.78351 0.42912 0.00000 1.0000
  Bi  Bi 0.78351 0.42912 0.00000 1.0000
  Bi  Bi 0.78351 0.42912 0.00000 1.0000
  Bi  Bi 0.82495 0.44984 0.36895 1.0000
  Bi  Bi 0.82495 0.44984 0.36895 1.0000
  Bi  Bi 0.81295 0.43203 0.63104 1.0000
  Bi  Bi 0.81295 0.43203 0.63104 1.0000
  Bi  Bi 0.80714 0.42912 0.00000 1.0000
  Bi  Bi 0.80714 0.42912 0.00000 1.0000
  Bi  Bi 0.80714 0.42912 0.00000 1.0000
  Bi  Bi 0.80714 0.42912 0.00000 1.0000
  Bi  Bi 0.84858 0.44984 0.36895 1.0000
  Bi  Bi 0.84858 0.44984 0.36895 1.0000
  Bi  Bi 0.83657 0.43203 0.63104 1.0000
  Bi  Bi 0.83657 0.43203 0.63104 1.0000
  Bi  Bi 0.83076 0.42912 0.00000 1.0000
  Bi  Bi 0.83076 0.42912 0.00000 1.0000
  Bi  Bi 0.83076 0.42912 0.00000 1.0000
  Bi  Bi 0.83076 0.42912 0.00000 1.0000
  Bi  Bi 0.87220 0.44984 0.36895 1.0000
  Bi  Bi 0.87220 0.44984 0.36895 1.0000
  Bi  Bi 0.86020 0.43203 0.63104 1.0000
  Bi  Bi 0.86020 0.43203 0.63104 1.0000
  Bi  Bi 0.85439 0.42912 0.00000 1.0000
  Bi  Bi 0.85439 0.42912 0.00000 1.0000
  Bi  Bi 0.85439 0.42912 0.00000 1.0000
  Bi  Bi 0.85439 0.42912 0.00000 1.0000
  Bi  Bi 0.89583 0.44984 0.36895 1.0000
  Bi  Bi 0.89583 0.44984 0.36895 1.0000
  Bi  Bi 0.88383 0.43203 0.63104 1.0000
  Bi  Bi 0.88383 0.43203 0.63104 1.0000
  Bi  Bi 0.87802 0.42912 0.00000 1.0000
  Bi  Bi 0.87802 0.42912 0.00000 1.0000
  Bi  Bi 0.87802 0.42912 0.00000 1.0000
  Bi  Bi 0.87802 0.42912 0.00000 1.0000
  Bi  Bi 0.91946 0.44984 0.36895 1.0000
  Bi  Bi 0.91946 0.44984 0.36895 1.0000
  Bi  Bi 0.90745 0.43203 0.63104 1.0000
  Bi  Bi 0.90745 0.43203 0.63104 1.0000
  Bi  Bi 0.90164 0.42912 0.00000 1.0000
  Bi  Bi 0.90164 0.42912 0.00000 1.0000
  Bi  Bi 0.90164 0.42912 0.00000 1.0000
  Bi  Bi 0.90164 0.42912 0.00000 1.0000
  Bi  Bi 0.94308 0.44984 0.36895 1.0000
  Bi  Bi 0.94308 0.44984 0.36895 1.0000
  Bi  Bi 0.93108 0.43203 0.63104 1.0000
  Bi  Bi 0.93108 0.43203 0.63104 1.0000
  Bi  Bi 0.92527 0.42912 0.00000 1.0000
  Bi  Bi 0.92527 0.42912 0.00000 1.0000
  Bi  Bi 0.92527 0.42912 0.00000 1.0000
  Bi  Bi 0.92527 0.42912 0.00000 1.0000
  Bi  Bi 0.96671 0.44984 0.36895 1.0000
  Bi  Bi 0.96671 0.44984 0.36895 1.0000
  Bi  Bi 0.95470 0.43203 0.63104 1.0000
  Bi  Bi 0.95470 0.43203 0.63104 1.0000
  Bi  Bi 0.94889 0.42912 0.00000 1.0000
  Bi  Bi 0.94889 0.42912 0.00000 1.0000
  Bi  Bi 0.94889 0.42912 0.00000 1.0000
  Bi  Bi 0.94889 0.42912 0.00000 1.0000
  Bi  Bi 0.04530 0.47347 0.36895 1.0000
  Bi  Bi 0.04530 0.47347 0.36895 1.0000
  Bi  Bi 0.03329 0.45565 0.63104 1.0000
  Bi  Bi 0.03329 0.45565 0.63104 1.0000
  Bi  Bi 0.02748 0.45275 0.00000 1.0000
  Bi  Bi 0.02748 0.45275 0.00000 1.0000
  Bi  Bi 0.02748 0.45275 0.00000 1.0000
  Bi  Bi 0.02748 0.45275 0.00000 1.0000
  Bi  Bi 0.06892 0.47347 0.36895 1.0000
  Bi  Bi 0.06892 0.47347 0.36895 1.0000
  Bi  Bi 0.05692 0.45565 0.63104 1.0000
  Bi  Bi 0.05692 0.45565 0.63104 1.0000
  Bi  Bi 0.05111 0.45275 0.00000 1.0000
  Bi  Bi 0.05111 0.45275 0.00000 1.0000
  Bi  Bi 0.05111 0.45275 0.00000 1.0000
  Bi  Bi 0.05111 0.45275 0.00000 1.0000
  Bi  Bi 0.09255 0.47347 0.36895 1.0000
  Bi  Bi 0.09255 0.47347 0.36895 1.0000
  Bi  Bi 0.08054 0.45565 0.63104 1.0000
  Bi  Bi 0.08054 0.45565 0.63104 1.0000
  Bi  Bi 0.07473 0.45275 0.00000 1.0000
  Bi  Bi 0.07473 0.45275 0.00000 1.0000
  Bi  Bi 0.07473 0.45275 0.00000 1.0000
  Bi  Bi 0.07473 0.45275 0.00000 1.0000
  Bi  Bi 0.11617 0.47347 0.36895 1.0000
  Bi  Bi 0.11617 0.47347 0.36895 1.0000
  Bi  Bi 0.10417 0.45565 0.63104 1.0000
  Bi  Bi 0.10417 0.45565 0.63104 1.0000
  Bi  Bi 0.09836 0.45275 0.00000 1.0000
  Bi  Bi 0.09836 0.45275 0.00000 1.0000
  Bi  Bi 0.09836 0.45275 0.00000 1.0000
  Bi  Bi 0.09836 0.45275 0.00000 1.0000
  Bi  Bi 0.13980 0.47347 0.36895 1.0000
  Bi  Bi 0.13980 0.47347 0.36895 1.0000
  Bi  Bi 0.12780 0.45565 0.63104 1.0000
  Bi  Bi 0.12780 0.45565 0.63104 1.0000
  Bi  Bi 0.12198 0.45275 0.00000 1.0000
  Bi  Bi 0.12198 0.45275 0.00000 1.0000
  Bi  Bi 0.12198 0.45275 0.00000 1.0000
  Bi  Bi 0.12198 0.45275 0.00000 1.0000
  Bi  Bi 0.16343 0.47347 0.36895 1.0000
  Bi  Bi 0.16343 0.47347 0.36895 1.0000
  Bi  Bi 0.15142 0.45565 0.63104 1.0000
  Bi  Bi 0.15142 0.45565 0.63104 1.0000
  Bi  Bi 0.14561 0.45275 0.00000 1.0000
  Bi  Bi 0.14561 0.45275 0.00000 1.0000
  Bi  Bi 0.14561 0.45275 0.00000 1.0000
  Bi  Bi 0.14561 0.45275 0.00000 1.0000
  Bi  Bi 0.18705 0.47347 0.36895 1.0000
  Bi  Bi 0.18705 0.47347 0.36895 1.0000
  Bi  Bi 0.17505 0.45565 0.63104 1.0000
  Bi  Bi 0.17505 0.45565 0.63104 1.0000
  Bi  Bi 0.16924 0.45275 0.00000 1.0000
  Bi  Bi 0.16924 0.45275 0.00000 1.0000
  Bi  Bi 0.16924 0.45275 0.00000 1.0000
  Bi  Bi 0.16924 0.45275 0.00000 1.0000
  Bi  Bi 0.21068 0.47347 0.36895 1.0000
  Bi  Bi 0.21068 0.47347 0.36895 1.0000
  Bi  Bi 0.19867 0.45565 0.63104 1.0000
  Bi  Bi 0.19867 0.45565 0.63104 1.0000
  Bi  Bi 0.19286 0.45275 0.00000 1.0000
  Bi  Bi 0.19286 0.45275 0.00000 1.0000
  Bi  Bi 0.19286 0.45275 0.00000 1.0000
  Bi  Bi 0.19286 0.45275 0.00000 1.0000
  Bi  Bi 0.23430 0.47347 0.36895 1.0000
  Bi  Bi 0.23430 0.47347 0.36895 1.0000
  Bi  Bi 0.22230 0.45565 0.63104 1.0000
  Bi  Bi 0.22230 0.45565 0.63104 1.0000
  Bi  Bi 0.21649 0.45275 0.00000 1.0000
  Bi  Bi 0.21649 0.45275 0.00000 1.0000
  Bi  Bi 0.21649 0.45275 0.00000 1.0000
  Bi  Bi 0.21649 0.45275 0.00000 1.0000
  Bi  Bi 0.25793 0.47347 0.36895 1.0000
  Bi  Bi 0.25793 0.47347 0.36895 1.0000
  Bi  Bi 0.24593 0.45565 0.63104 1.0000
  Bi  Bi 0.24593 0.45565 0.63104 1.0000
  Bi  Bi 0.24011 0.45275 0.00000 1.0000
  Bi  Bi 0.24011 0.45275 0.00000 1.0000
  Bi  Bi 0.24011 0.45275 0.00000 1.0000
  Bi  Bi 0.24011 0.45275 0.00000 1.0000
  Bi  Bi 0.28156 0.47347 0.36895 1.0000
  Bi  Bi 0.28156 0.47347 0.36895 1.0000
  Bi  Bi 0.26955 0.45565 0.63104 1.0000
  Bi  Bi 0.26955 0.45565 0.63104 1.0000
  Bi  Bi 0.26374 0.45275 0.00000 1.0000
  Bi  Bi 0.26374 0.45275 0.00000 1.0000
  Bi  Bi 0.26374 0.45275 0.00000 1.0000
  Bi  Bi 0.26374 0.45275 0.00000 1.0000
  Bi  Bi 0.30518 0.47347 0.36895 1.0000
  Bi  Bi 0.30518 0.47347 0.36895 1.0000
  Bi  Bi 0.29318 0.45565 0.63104 1.0000
  Bi  Bi 0.29318 0.45565 0.63104 1.0000
  Bi  Bi 0.28737 0.45275 0.00000 1.0000
  Bi  Bi 0.28737 0.45275 0.00000 1.0000
  Bi  Bi 0.28737 0.45275 0.00000 1.0000
  Bi  Bi 0.28737 0.45275 0.00000 1.0000
  Bi  Bi 0.32881 0.47347 0.36895 1.0000
  Bi  Bi 0.32881 0.47347 0.36895 1.0000
  Bi  Bi 0.31680 0.45565 0.63104 1.0000
  Bi  Bi 0.31680 0.45565 0.63104 1.0000
  Bi  Bi 0.31099 0.45275 0.00000 1.0000
  Bi  Bi 0.31099 0.45275 0.00000 1.0000
  Bi  Bi 0.31099 0.45275 0.00000 1.0000
  Bi  Bi 0.31099 0.45275 0.00000 1.0000
  Bi  Bi 0.35243 0.47347 0.36895 1.0000
  Bi  Bi 0.35243 0.47347 0.36895 1.0000
  Bi  Bi 0.34043 0.45565 0.63104 1.0000
  Bi  Bi 0.34043 0.45565 0.63104 1.0000
  Bi  Bi 0.33462 0.45275 0.00000 1.0000
  Bi  Bi 0.33462 0.45275 0.00000 1.0000
  Bi  Bi 0.33462 0.45275 0.00000 1.0000
  Bi  Bi 0.33462 0.45275 0.00000 1.0000
  Bi  Bi 0.37606 0.47347 0.36895 1.0000
  Bi  Bi 0.37606 0.47347 0.36895 1.0000
  Bi  Bi 0.36406 0.45565 0.63104 1.0000
  Bi  Bi 0.36406 0.45565 0.63104 1.0000
  Bi  Bi 0.35824 0.45275 0.00000 1.0000
  Bi  Bi 0.35824 0.45275 0.00000 1.0000
  Bi  Bi 0.35824 0.45275 0.00000 1.0000
  Bi  Bi 0.35824 0.45275 0.00000 1.0000
  Bi  Bi 0.39968 0.47347 0.36895 1.0000
  Bi  Bi 0.39968 0.47347 0.36895 1.0000
  Bi  Bi 0.38768 0.45565 0.63104 1.0000
  Bi  Bi 0.38768 0.45565 0.63104 1.0000
  Bi  Bi 0.38187 0.45275 0.00000 1.0000
  Bi  Bi 0.38187 0.45275 0.00000 1.0000
  Bi  Bi 0.38187 0.45275 0.00000 1.0000
  Bi  Bi 0.38187 0.45275 0.00000 1.0000
  Bi  Bi 0.42331 0.47347 0.36895 1.0000
  Bi  Bi 0.42331 0.47347 0.36895 1.0000
  Bi  Bi 0.41131 0.45565 0.63104 1.0000
  Bi  Bi 0.41131 0.45565 0.63104 1.0000
  Bi  Bi 0.40550 0.45275 0.00000 1.0000
  Bi  Bi 0.40550 0.45275 0.00000 1.0000
  Bi  Bi 0.40550 0.45275 0.00000 1.0000
  Bi  Bi 0.40550 0.45275 0.00000 1.0000
  Bi  Bi 0.44694 0.47347 0.36895 1.0000
  Bi  Bi 0.44694 0.47347 0.36895 1.0000
  Bi  Bi 0.43493 0.45565 0.63104 1.0000
  Bi  Bi 0.43493 0.45565 0.63104 1.0000
  Bi  Bi 0.42912 0.45275 0.00000 1.0000
  Bi  Bi 0.42912 0.45275 0.00000 1.0000
  Bi  Bi 0.42912 0.45275 0.00000 1.0000
  Bi  Bi 0.42912 0.45275 0.00000 1.0000
  Bi  Bi 0.47056 0.47347 0.36895 1.0000
  Bi  Bi 0.47056 0.47347 0.36895 1.0000
  Bi  Bi 0.45856 0.45565 0.63104 1.0000
  Bi  Bi 0.45856 0.45565 0.63104 1.0000
  Bi  Bi 0.45275 0.45275 0.00000 1.0000
  Bi  Bi 0.45275 0.45275 0.00000 1.0000
  Bi  Bi 0.45275 0.45275 0.00000 1.0000
  Bi  Bi 0.45275 0.45275 0.00000 1.0000
  Bi  Bi 0.49419 0.47347 0.36895 1.0000
  Bi  Bi 0.49419 0.47347 0.36895 1.0000
  Bi  Bi 0.48219 0.45565 0.63104 1.0000
  Bi  Bi 0.48219 0.45565 0.63104 1.0000
  Bi  Bi 0.47637 0.45275 0.00000 1.0000
  Bi  Bi 0.47637 0.45275 0.00000 1.0000
  Bi  Bi 0.47637 0.45275 0.00000 1.0000
  Bi  Bi 0.47637 0.45275 0.00000 1.0000
  Bi  Bi 0.51781 0.47347 0.36895 1.0000
  Bi  Bi 0.51781 0.47347 0.36895 1.0000
  Bi  Bi 0.50581 0.45565 0.63104 1.0000
  Bi  Bi 0.50581 0.45565 0.63104 1.0000
  Bi  Bi 0.50000 0.45275 0.00000 1.0000
  Bi  Bi 0.50000 0.45275 0.00000 1.0000
  Bi  Bi 0.50000 0.45275 0.00000 1.0000
  Bi  Bi 0.50000 0.45275 0.00000 1.0000
  Bi  Bi 0.54144 0.47347 0.36895 1.0000
  Bi  Bi 0.54144 0.47347 0.36895 1.0000
  Bi  Bi 0.52944 0.45565 0.63104 1.0000
  Bi  Bi 0.52944 0.45565 0.63104 1.0000
  Bi  Bi 0.52363 0.45275 0.00000 1.0000
  Bi  Bi 0.52363 0.45275 0.00000 1.0000
  Bi  Bi 0.52363 0.45275 0.00000 1.0000
  Bi  Bi 0.52363 0.45275 0.00000 1.0000
  Bi  Bi 0.56507 0.47347 0.36895 1.0000
  Bi  Bi 0.56507 0.47347 0.36895 1.0000
  Bi  Bi 0.55306 0.45565 0.63104 1.0000
  Bi  Bi 0.55306 0.45565 0.63104 1.0000
  Bi  Bi 0.54725 0.45275 0.00000 1.0000
  Bi  Bi 0.54725 0.45275 0.00000 1.0000
  Bi  Bi 0.54725 0.45275 0.00000 1.0000
  Bi  Bi 0.54725 0.45275 0.00000 1.0000
  Bi  Bi 0.58869 0.47347 0.36895 1.0000
  Bi  Bi 0.58869 0.47347 0.36895 1.0000
  Bi  Bi 0.57669 0.45565 0.63104 1.0000
  Bi  Bi 0.57669 0.45565 0.63104 1.0000
  Bi  Bi 0.57088 0.45275 0.00000 1.0000
  Bi  Bi 0.57088 0.45275 0.00000 1.0000
  Bi  Bi 0.57088 0.45275 0.00000 1.0000
  Bi  Bi 0.57088 0.45275 0.00000 1.0000
  Bi  Bi 0.61232 0.47347 0.36895 1.0000
  Bi  Bi 0.61232 0.47347 0.36895 1.0000
  Bi  Bi 0.60032 0.45565 0.63104 1.0000
  Bi  Bi 0.60032 0.45565 0.63104 1.0000
  Bi  Bi 0.59450 0.45275 0.00000 1.0000
  Bi  Bi 0.59450 0.45275 0.00000 1.0000
  Bi  Bi 0.59450 0.45275 0.00000 1.0000
  Bi  Bi 0.59450 0.45275 0.00000 1.0000
  Bi  Bi 0.63594 0.47347 0.36895 1.0000
  Bi  Bi 0.63594 0.47347 0.36895 1.0000
  Bi  Bi 0.62394 0.45565 0.63104 1.0000
  Bi  Bi 0.62394 0.45565 0.63104 1.0000
  Bi  Bi 0.61813 0.45275 0.00000 1.0000
  Bi  Bi 0.61813 0.45275 0.00000 1.0000
  Bi  Bi 0.61813 0.45275 0.00000 1.0000
  Bi  Bi 0.61813 0.45275 0.00000 1.0000
  Bi  Bi 0.65957 0.47347 0.36895 1.0000
  Bi  Bi 0.65957 0.47347 0.36895 1.0000
  Bi  Bi 0.64757 0.45565 0.63104 1.0000
  Bi  Bi 0.64757 0.45565 0.63104 1.0000
  Bi  Bi 0.64176 0.45275 0.00000 1.0000
  Bi  Bi 0.64176 0.45275 0.00000 1.0000
  Bi  Bi 0.64176 0.45275 0.00000 1.0000
  Bi  Bi 0.64176 0.45275 0.00000 1.0000
  Bi  Bi 0.68320 0.47347 0.36895 1.0000
  Bi  Bi 0.68320 0.47347 0.36895 1.0000
  Bi  Bi 0.67119 0.45565 0.63104 1.0000
  Bi  Bi 0.67119 0.45565 0.63104 1.0000
  Bi  Bi 0.66538 0.45275 0.00000 1.0000
  Bi  Bi 0.66538 0.45275 0.00000 1.0000
  Bi  Bi 0.66538 0.45275 0.00000 1.0000
  Bi  Bi 0.66538 0.45275 0.00000 1.0000
  Bi  Bi 0.70682 0.47347 0.36895 1.0000
  Bi  Bi 0.70682 0.47347 0.36895 1.0000
  Bi  Bi 0.69482 0.45565 0.63104 1.0000
  Bi  Bi 0.69482 0.45565 0.63104 1.0000
  Bi  Bi 0.68901 0.45275 0.00000 1.0000
  Bi  Bi 0.68901 0.45275 0.00000 1.0000
  Bi  Bi 0.68901 0.45275 0.00000 1.0000
  Bi  Bi 0.68901 0.45275 0.00000 1.0000
  Bi  Bi 0.73045 0.47347 0.36895 1.0000
  Bi  Bi 0.73045 0.47347 0.36895 1.0000
  Bi  Bi 0.71844 0.45565 0.63104 1.0000
  Bi  Bi 0.71844 0.45565 0.63104 1.0000
  Bi  Bi 0.71263 0.45275 0.00000 1.0000
  Bi  Bi 0.71263 0.45275 0.00000 1.0000
  Bi  Bi 0.71263 0.45275 0.00000 1.0000
  Bi  Bi 0.71263 0.45275 0.00000 1.0000
  Bi  Bi 0.75407 0.47347 0.36895 1.0000
  Bi  Bi 0.75407 0.47347 0.36895 1.0000
  Bi  Bi 0.74207 0.45565 0.63104 1.0000
  Bi  Bi 0.74207 0.45565 0.63104 1.0000
  Bi  Bi 0.73626 0.45275 0.00000 1.0000
  Bi  Bi 0.73626 0.45275 0.00000 1.0000
  Bi  Bi 0.73626 0.45275 0.00000 1.0000
  Bi  Bi 0.73626 0.45275 0.00000 1.0000
  Bi  Bi 0.77770 0.47347 0.36895 1.0000
  Bi  Bi 0.77770 0.47347 0.36895 1.0000
  Bi  Bi 0.76570 0.45565 0.63104 1.0000
  Bi  Bi 0.76570 0.45565 0.63104 1.0000
  Bi  Bi 0.75989 0.45275 0.00000 1.0000
  Bi  Bi 0.75989 0.45275 0.00000 1.0000
  Bi  Bi 0.75989 0.45275 0.00000 1.0000
  Bi  Bi 0.75989 0.45275 0.00000 1.0000
  Bi  Bi 0.80133 0.47347 0.36895 1.0000
  Bi  Bi 0.80133 0.47347 0.36895 1.0000
  Bi  Bi 0.78932 0.45565 0.63104 1.0000
  Bi  Bi 0.78932 0.45565 0.63104 1.0000
  Bi  Bi 0.78351 0.45275 0.00000 1.0000
  Bi  Bi 0.78351 0.45275 0.00000 1.0000
  Bi  Bi 0.78351 0.45275 0.00000 1.0000
  Bi  Bi 0.78351 0.45275 0.00000 1.0000
  Bi  Bi 0.82495 0.47347 0.36895 1.0000
  Bi  Bi 0.82495 0.47347 0.36895 1.0000
  Bi  Bi 0.81295 0.45565 0.63104 1.0000
  Bi  Bi 0.81295 0.45565 0.63104 1.0000
  Bi  Bi 0.80714 0.45275 0.00000 1.0000
  Bi  Bi 0.80714 0.45275 0.00000 1.0000
  Bi  Bi 0.80714 0.45275 0.00000 1.0000
  Bi  Bi 0.80714 0.45275 0.00000 1.0000
  Bi  Bi 0.84858 0.47347 0.36895 1.0000
  Bi  Bi 0.84858 0.47347 0.36895 1.0000
  Bi  Bi 0.83657 0.45565 0.63104 1.0000
  Bi  Bi 0.83657 0.45565 0.63104 1.0000
  Bi  Bi 0.83076 0.45275 0.00000 1.0000
  Bi  Bi 0.83076 0.45275 0.00000 1.0000
  Bi  Bi 0.83076 0.45275 0.00000 1.0000
  Bi  Bi 0.83076 0.45275 0.00000 1.0000
  Bi  Bi 0.87220 0.47347 0.36895 1.0000
  Bi  Bi 0.87220 0.47347 0.36895 1.0000
  Bi  Bi 0.86020 0.45565 0.63104 1.0000
  Bi  Bi 0.86020 0.45565 0.63104 1.0000
  Bi  Bi 0.85439 0.45275 0.00000 1.0000
  Bi  Bi 0.85439 0.45275 0.00000 1.0000
  Bi  Bi 0.85439 0.45275 0.00000 1.0000
  Bi  Bi 0.85439 0.45275 0.00000 1.0000
  Bi  Bi 0.89583 0.47347 0.36895 1.0000
  Bi  Bi 0.89583 0.47347 0.36895 1.0000
  Bi  Bi 0.88383 0.45565 0.63104 1.0000
  Bi  Bi 0.88383 0.45565 0.63104 1.0000
  Bi  Bi 0.87802 0.45275 0.00000 1.0000
  Bi  Bi 0.87802 0.45275 0.00000 1.0000
  Bi  Bi 0.87802 0.45275 0.00000 1.0000
  Bi  Bi 0.87802 0.45275 0.00000 1.0000
  Bi  Bi 0.91946 0.47347 0.36895 1.0000
  Bi  Bi 0.91946 0.47347 0.36895 1.0000
  Bi  Bi 0.90745 0.45565 0.63104 1.0000
  Bi  Bi 0.90745 0.45565 0.63104 1.0000
  Bi  Bi 0.90164 0.45275 0.00000 1.0000
  Bi  Bi 0.90164 0.45275 0.00000 1.0000
  Bi  Bi 0.90164 0.45275 0.00000 1.0000
  Bi  Bi 0.90164 0.45275 0.00000 1.0000
  Bi  Bi 0.94308 0.47347 0.36895 1.0000
  Bi  Bi 0.94308 0.47347 0.36895 1.0000
  Bi  Bi 0.93108 0.45565 0.63104 1.0000
  Bi  Bi 0.93108 0.45565 0.63104 1.0000
  Bi  Bi 0.92527 0.45275 0.00000 1.0000
  Bi  Bi 0.92527 0.45275 0.00000 1.0000
  Bi  Bi 0.92527 0.45275 0.00000 1.0000
  Bi  Bi 0.92527 0.45275 0.00000 1.0000
  Bi  Bi 0.96671 0.47347 0.36895 1.0000
  Bi  Bi 0.96671 0.47347 0.36895 1.0000
  Bi  Bi 0.95470 0.45565 0.63104 1.0000
  Bi  Bi 0.95470 0.45565 0.63104 1.0000
  Bi  Bi 0.94889 0.45275 0.00000 1.0000
  Bi  Bi 0.94889 0.45275 0.00000 1.0000
  Bi  Bi 0.94889 0.45275 0.00000 1.0000
  Bi  Bi 0.94889 0.45275 0.00000 1.0000
  Bi  Bi 0.04530 0.49709 0.36895 1.0000
  Bi  Bi 0.04530 0.49709 0.36895 1.0000
  Bi  Bi 0.03329 0.47928 0.63104 1.0000
  Bi  Bi 0.03329 0.47928 0.63104 1.0000
  Bi  Bi 0.02748 0.47637 0.00000 1.0000
  Bi  Bi 0.02748 0.47637 0.00000 1.0000
  Bi  Bi 0.02748 0.47637 0.00000 1.0000
  Bi  Bi 0.02748 0.47637 0.00000 1.0000
  Bi  Bi 0.06892 0.49709 0.36895 1.0000
  Bi  Bi 0.06892 0.49709 0.36895 1.0000
  Bi  Bi 0.05692 0.47928 0.63104 1.0000
  Bi  Bi 0.05692 0.47928 0.63104 1.0000
  Bi  Bi 0.05111 0.47637 0.00000 1.0000
  Bi  Bi 0.05111 0.47637 0.00000 1.0000
  Bi  Bi 0.05111 0.47637 0.00000 1.0000
  Bi  Bi 0.05111 0.47637 0.00000 1.0000
  Bi  Bi 0.09255 0.49709 0.36895 1.0000
  Bi  Bi 0.09255 0.49709 0.36895 1.0000
  Bi  Bi 0.08054 0.47928 0.63104 1.0000
  Bi  Bi 0.08054 0.47928 0.63104 1.0000
  Bi  Bi 0.07473 0.47637 0.00000 1.0000
  Bi  Bi 0.07473 0.47637 0.00000 1.0000
  Bi  Bi 0.07473 0.47637 0.00000 1.0000
  Bi  Bi 0.07473 0.47637 0.00000 1.0000
  Bi  Bi 0.11617 0.49709 0.36895 1.0000
  Bi  Bi 0.11617 0.49709 0.36895 1.0000
  Bi  Bi 0.10417 0.47928 0.63104 1.0000
  Bi  Bi 0.10417 0.47928 0.63104 1.0000
  Bi  Bi 0.09836 0.47637 0.00000 1.0000
  Bi  Bi 0.09836 0.47637 0.00000 1.0000
  Bi  Bi 0.09836 0.47637 0.00000 1.0000
  Bi  Bi 0.09836 0.47637 0.00000 1.0000
  Bi  Bi 0.13980 0.49709 0.36895 1.0000
  Bi  Bi 0.13980 0.49709 0.36895 1.0000
  Bi  Bi 0.12780 0.47928 0.63104 1.0000
  Bi  Bi 0.12780 0.47928 0.63104 1.0000
  Bi  Bi 0.12198 0.47637 0.00000 1.0000
  Bi  Bi 0.12198 0.47637 0.00000 1.0000
  Bi  Bi 0.12198 0.47637 0.00000 1.0000
  Bi  Bi 0.12198 0.47637 0.00000 1.0000
  Bi  Bi 0.16343 0.49709 0.36895 1.0000
  Bi  Bi 0.16343 0.49709 0.36895 1.0000
  Bi  Bi 0.15142 0.47928 0.63104 1.0000
  Bi  Bi 0.15142 0.47928 0.63104 1.0000
  Bi  Bi 0.14561 0.47637 0.00000 1.0000
  Bi  Bi 0.14561 0.47637 0.00000 1.0000
  Bi  Bi 0.14561 0.47637 0.00000 1.0000
  Bi  Bi 0.14561 0.47637 0.00000 1.0000
  Bi  Bi 0.18705 0.49709 0.36895 1.0000
  Bi  Bi 0.18705 0.49709 0.36895 1.0000
  Bi  Bi 0.17505 0.47928 0.63104 1.0000
  Bi  Bi 0.17505 0.47928 0.63104 1.0000
  Bi  Bi 0.16924 0.47637 0.00000 1.0000
  Bi  Bi 0.16924 0.47637 0.00000 1.0000
  Bi  Bi 0.16924 0.47637 0.00000 1.0000
  Bi  Bi 0.16924 0.47637 0.00000 1.0000
  Bi  Bi 0.21068 0.49709 0.36895 1.0000
  Bi  Bi 0.21068 0.49709 0.36895 1.0000
  Bi  Bi 0.19867 0.47928 0.63104 1.0000
  Bi  Bi 0.19867 0.47928 0.63104 1.0000
  Bi  Bi 0.19286 0.47637 0.00000 1.0000
  Bi  Bi 0.19286 0.47637 0.00000 1.0000
  Bi  Bi 0.19286 0.47637 0.00000 1.0000
  Bi  Bi 0.19286 0.47637 0.00000 1.0000
  Bi  Bi 0.23430 0.49709 0.36895 1.0000
  Bi  Bi 0.23430 0.49709 0.36895 1.0000
  Bi  Bi 0.22230 0.47928 0.63104 1.0000
  Bi  Bi 0.22230 0.47928 0.63104 1.0000
  Bi  Bi 0.21649 0.47637 0.00000 1.0000
  Bi  Bi 0.21649 0.47637 0.00000 1.0000
  Bi  Bi 0.21649 0.47637 0.00000 1.0000
  Bi  Bi 0.21649 0.47637 0.00000 1.0000
  Bi  Bi 0.25793 0.49709 0.36895 1.0000
  Bi  Bi 0.25793 0.49709 0.36895 1.0000
  Bi  Bi 0.24593 0.47928 0.63104 1.0000
  Bi  Bi 0.24593 0.47928 0.63104 1.0000
  Bi  Bi 0.24011 0.47637 0.00000 1.0000
  Bi  Bi 0.24011 0.47637 0.00000 1.0000
  Bi  Bi 0.24011 0.47637 0.00000 1.0000
  Bi  Bi 0.24011 0.47637 0.00000 1.0000
  Bi  Bi 0.28156 0.49709 0.36895 1.0000
  Bi  Bi 0.28156 0.49709 0.36895 1.0000
  Bi  Bi 0.26955 0.47928 0.63104 1.0000
  Bi  Bi 0.26955 0.47928 0.63104 1.0000
  Bi  Bi 0.26374 0.47637 0.00000 1.0000
  Bi  Bi 0.26374 0.47637 0.00000 1.0000
  Bi  Bi 0.26374 0.47637 0.00000 1.0000
  Bi  Bi 0.26374 0.47637 0.00000 1.0000
  Bi  Bi 0.30518 0.49709 0.36895 1.0000
  Bi  Bi 0.30518 0.49709 0.36895 1.0000
  Bi  Bi 0.29318 0.47928 0.63104 1.0000
  Bi  Bi 0.29318 0.47928 0.63104 1.0000
  Bi  Bi 0.28737 0.47637 0.00000 1.0000
  Bi  Bi 0.28737 0.47637 0.00000 1.0000
  Bi  Bi 0.28737 0.47637 0.00000 1.0000
  Bi  Bi 0.28737 0.47637 0.00000 1.0000
  Bi  Bi 0.32881 0.49709 0.36895 1.0000
  Bi  Bi 0.32881 0.49709 0.36895 1.0000
  Bi  Bi 0.31680 0.47928 0.63104 1.0000
  Bi  Bi 0.31680 0.47928 0.63104 1.0000
  Bi  Bi 0.31099 0.47637 0.00000 1.0000
  Bi  Bi 0.31099 0.47637 0.00000 1.0000
  Bi  Bi 0.31099 0.47637 0.00000 1.0000
  Bi  Bi 0.31099 0.47637 0.00000 1.0000
  Bi  Bi 0.35243 0.49709 0.36895 1.0000
  Bi  Bi 0.35243 0.49709 0.36895 1.0000
  Bi  Bi 0.34043 0.47928 0.63104 1.0000
  Bi  Bi 0.34043 0.47928 0.63104 1.0000
  Bi  Bi 0.33462 0.47637 0.00000 1.0000
  Bi  Bi 0.33462 0.47637 0.00000 1.0000
  Bi  Bi 0.33462 0.47637 0.00000 1.0000
  Bi  Bi 0.33462 0.47637 0.00000 1.0000
  Bi  Bi 0.37606 0.49709 0.36895 1.0000
  Bi  Bi 0.37606 0.49709 0.36895 1.0000
  Bi  Bi 0.36406 0.47928 0.63104 1.0000
  Bi  Bi 0.36406 0.47928 0.63104 1.0000
  Bi  Bi 0.35824 0.47637 0.00000 1.0000
  Bi  Bi 0.35824 0.47637 0.00000 1.0000
  Bi  Bi 0.35824 0.47637 0.00000 1.0000
  Bi  Bi 0.35824 0.47637 0.00000 1.0000
  Bi  Bi 0.39968 0.49709 0.36895 1.0000
  Bi  Bi 0.39968 0.49709 0.36895 1.0000
  Bi  Bi 0.38768 0.47928 0.63104 1.0000
  Bi  Bi 0.38768 0.47928 0.63104 1.0000
  Bi  Bi 0.38187 0.47637 0.00000 1.0000
  Bi  Bi 0.38187 0.47637 0.00000 1.0000
  Bi  Bi 0.38187 0.47637 0.00000 1.0000
  Bi  Bi 0.38187 0.47637 0.00000 1.0000
  Bi  Bi 0.42331 0.49709 0.36895 1.0000
  Bi  Bi 0.42331 0.49709 0.36895 1.0000
  Bi  Bi 0.41131 0.47928 0.63104 1.0000
  Bi  Bi 0.41131 0.47928 0.63104 1.0000
  Bi  Bi 0.40550 0.47637 0.00000 1.0000
  Bi  Bi 0.40550 0.47637 0.00000 1.0000
  Bi  Bi 0.40550 0.47637 0.00000 1.0000
  Bi  Bi 0.40550 0.47637 0.00000 1.0000
  Bi  Bi 0.44694 0.49709 0.36895 1.0000
  Bi  Bi 0.44694 0.49709 0.36895 1.0000
  Bi  Bi 0.43493 0.47928 0.63104 1.0000
  Bi  Bi 0.43493 0.47928 0.63104 1.0000
  Bi  Bi 0.42912 0.47637 0.00000 1.0000
  Bi  Bi 0.42912 0.47637 0.00000 1.0000
  Bi  Bi 0.42912 0.47637 0.00000 1.0000
  Bi  Bi 0.42912 0.47637 0.00000 1.0000
  Bi  Bi 0.47056 0.49709 0.36895 1.0000
  Bi  Bi 0.47056 0.49709 0.36895 1.0000
  Bi  Bi 0.45856 0.47928 0.63104 1.0000
  Bi  Bi 0.45856 0.47928 0.63104 1.0000
  Bi  Bi 0.45275 0.47637 0.00000 1.0000
  Bi  Bi 0.45275 0.47637 0.00000 1.0000
  Bi  Bi 0.45275 0.47637 0.00000 1.0000
  Bi  Bi 0.45275 0.47637 0.00000 1.0000
  Bi  Bi 0.49419 0.49709 0.36895 1.0000
  Bi  Bi 0.49419 0.49709 0.36895 1.0000
  Bi  Bi 0.48219 0.47928 0.63104 1.0000
  Bi  Bi 0.48219 0.47928 0.63104 1.0000
  Bi  Bi 0.47637 0.47637 0.00000 1.0000
  Bi  Bi 0.47637 0.47637 0.00000 1.0000
  Bi  Bi 0.47637 0.47637 0.00000 1.0000
  Bi  Bi 0.47637 0.47637 0.00000 1.0000
  Bi  Bi 0.51781 0.49709 0.36895 1.0000
  Bi  Bi 0.51781 0.49709 0.36895 1.0000
  Bi  Bi 0.50581 0.47928 0.63104 1.0000
  Bi  Bi 0.50581 0.47928 0.63104 1.0000
  Bi  Bi 0.50000 0.47637 0.00000 1.0000
  Bi  Bi 0.50000 0.47637 0.00000 1.0000
  Bi  Bi 0.50000 0.47637 0.00000 1.0000
  Bi  Bi 0.50000 0.47637 0.00000 1.0000
  Bi  Bi 0.54144 0.49709 0.36895 1.0000
  Bi  Bi 0.54144 0.49709 0.36895 1.0000
  Bi  Bi 0.52944 0.47928 0.63104 1.0000
  Bi  Bi 0.52944 0.47928 0.63104 1.0000
  Bi  Bi 0.52363 0.47637 0.00000 1.0000
  Bi  Bi 0.52363 0.47637 0.00000 1.0000
  Bi  Bi 0.52363 0.47637 0.00000 1.0000
  Bi  Bi 0.52363 0.47637 0.00000 1.0000
  Bi  Bi 0.56507 0.49709 0.36895 1.0000
  Bi  Bi 0.56507 0.49709 0.36895 1.0000
  Bi  Bi 0.55306 0.47928 0.63104 1.0000
  Bi  Bi 0.55306 0.47928 0.63104 1.0000
  Bi  Bi 0.54725 0.47637 0.00000 1.0000
  Bi  Bi 0.54725 0.47637 0.00000 1.0000
  Bi  Bi 0.54725 0.47637 0.00000 1.0000
  Bi  Bi 0.54725 0.47637 0.00000 1.0000
  Bi  Bi 0.58869 0.49709 0.36895 1.0000
  Bi  Bi 0.58869 0.49709 0.36895 1.0000
  Bi  Bi 0.57669 0.47928 0.63104 1.0000
  Bi  Bi 0.57669 0.47928 0.63104 1.0000
  Bi  Bi 0.57088 0.47637 0.00000 1.0000
  Bi  Bi 0.57088 0.47637 0.00000 1.0000
  Bi  Bi 0.57088 0.47637 0.00000 1.0000
  Bi  Bi 0.57088 0.47637 0.00000 1.0000
  Bi  Bi 0.61232 0.49709 0.36895 1.0000
  Bi  Bi 0.61232 0.49709 0.36895 1.0000
  Bi  Bi 0.60032 0.47928 0.63104 1.0000
  Bi  Bi 0.60032 0.47928 0.63104 1.0000
  Bi  Bi 0.59450 0.47637 0.00000 1.0000
  Bi  Bi 0.59450 0.47637 0.00000 1.0000
  Bi  Bi 0.59450 0.47637 0.00000 1.0000
  Bi  Bi 0.59450 0.47637 0.00000 1.0000
  Bi  Bi 0.63594 0.49709 0.36895 1.0000
  Bi  Bi 0.63594 0.49709 0.36895 1.0000
  Bi  Bi 0.62394 0.47928 0.63104 1.0000
  Bi  Bi 0.62394 0.47928 0.63104 1.0000
  Bi  Bi 0.61813 0.47637 0.00000 1.0000
  Bi  Bi 0.61813 0.47637 0.00000 1.0000
  Bi  Bi 0.61813 0.47637 0.00000 1.0000
  Bi  Bi 0.61813 0.47637 0.00000 1.0000
  Bi  Bi 0.65957 0.49709 0.36895 1.0000
  Bi  Bi 0.65957 0.49709 0.36895 1.0000
  Bi  Bi 0.64757 0.47928 0.63104 1.0000
  Bi  Bi 0.64757 0.47928 0.63104 1.0000
  Bi  Bi 0.64176 0.47637 0.00000 1.0000
  Bi  Bi 0.64176 0.47637 0.00000 1.0000
  Bi  Bi 0.64176 0.47637 0.00000 1.0000
  Bi  Bi 0.64176 0.47637 0.00000 1.0000
  Bi  Bi 0.68320 0.49709 0.36895 1.0000
  Bi  Bi 0.68320 0.49709 0.36895 1.0000
  Bi  Bi 0.67119 0.47928 0.63104 1.0000
  Bi  Bi 0.67119 0.47928 0.63104 1.0000
  Bi  Bi 0.66538 0.47637 0.00000 1.0000
  Bi  Bi 0.66538 0.47637 0.00000 1.0000
  Bi  Bi 0.66538 0.47637 0.00000 1.0000
  Bi  Bi 0.66538 0.47637 0.00000 1.0000
  Bi  Bi 0.70682 0.49709 0.36895 1.0000
  Bi  Bi 0.70682 0.49709 0.36895 1.0000
  Bi  Bi 0.69482 0.47928 0.63104 1.0000
  Bi  Bi 0.69482 0.47928 0.63104 1.0000
  Bi  Bi 0.68901 0.47637 0.00000 1.0000
  Bi  Bi 0.68901 0.47637 0.00000 1.0000
  Bi  Bi 0.68901 0.47637 0.00000 1.0000
  Bi  Bi 0.68901 0.47637 0.00000 1.0000
  Bi  Bi 0.73045 0.49709 0.36895 1.0000
  Bi  Bi 0.73045 0.49709 0.36895 1.0000
  Bi  Bi 0.71844 0.47928 0.63104 1.0000
  Bi  Bi 0.71844 0.47928 0.63104 1.0000
  Bi  Bi 0.71263 0.47637 0.00000 1.0000
  Bi  Bi 0.71263 0.47637 0.00000 1.0000
  Bi  Bi 0.71263 0.47637 0.00000 1.0000
  Bi  Bi 0.71263 0.47637 0.00000 1.0000
  Bi  Bi 0.75407 0.49709 0.36895 1.0000
  Bi  Bi 0.75407 0.49709 0.36895 1.0000
  Bi  Bi 0.74207 0.47928 0.63104 1.0000
  Bi  Bi 0.74207 0.47928 0.63104 1.0000
  Bi  Bi 0.73626 0.47637 0.00000 1.0000
  Bi  Bi 0.73626 0.47637 0.00000 1.0000
  Bi  Bi 0.73626 0.47637 0.00000 1.0000
  Bi  Bi 0.73626 0.47637 0.00000 1.0000
  Bi  Bi 0.77770 0.49709 0.36895 1.0000
  Bi  Bi 0.77770 0.49709 0.36895 1.0000
  Bi  Bi 0.76570 0.47928 0.63104 1.0000
  Bi  Bi 0.76570 0.47928 0.63104 1.0000
  Bi  Bi 0.75989 0.47637 0.00000 1.0000
  Bi  Bi 0.75989 0.47637 0.00000 1.0000
  Bi  Bi 0.75989 0.47637 0.00000 1.0000
  Bi  Bi 0.75989 0.47637 0.00000 1.0000
  Bi  Bi 0.80133 0.49709 0.36895 1.0000
  Bi  Bi 0.80133 0.49709 0.36895 1.0000
  Bi  Bi 0.78932 0.47928 0.63104 1.0000
  Bi  Bi 0.78932 0.47928 0.63104 1.0000
  Bi  Bi 0.78351 0.47637 0.00000 1.0000
  Bi  Bi 0.78351 0.47637 0.00000 1.0000
  Bi  Bi 0.78351 0.47637 0.00000 1.0000
  Bi  Bi 0.78351 0.47637 0.00000 1.0000
  Bi  Bi 0.82495 0.49709 0.36895 1.0000
  Bi  Bi 0.82495 0.49709 0.36895 1.0000
  Bi  Bi 0.81295 0.47928 0.63104 1.0000
  Bi  Bi 0.81295 0.47928 0.63104 1.0000
  Bi  Bi 0.80714 0.47637 0.00000 1.0000
  Bi  Bi 0.80714 0.47637 0.00000 1.0000
  Bi  Bi 0.80714 0.47637 0.00000 1.0000
  Bi  Bi 0.80714 0.47637 0.00000 1.0000
  Bi  Bi 0.84858 0.49709 0.36895 1.0000
  Bi  Bi 0.84858 0.49709 0.36895 1.0000
  Bi  Bi 0.83657 0.47928 0.63104 1.0000
  Bi  Bi 0.83657 0.47928 0.63104 1.0000
  Bi  Bi 0.83076 0.47637 0.00000 1.0000
  Bi  Bi 0.83076 0.47637 0.00000 1.0000
  Bi  Bi 0.83076 0.47637 0.00000 1.0000
  Bi  Bi 0.83076 0.47637 0.00000 1.0000
  Bi  Bi 0.87220 0.49709 0.36895 1.0000
  Bi  Bi 0.87220 0.49709 0.36895 1.0000
  Bi  Bi 0.86020 0.47928 0.63104 1.0000
  Bi  Bi 0.86020 0.47928 0.63104 1.0000
  Bi  Bi 0.85439 0.47637 0.00000 1.0000
  Bi  Bi 0.85439 0.47637 0.00000 1.0000
  Bi  Bi 0.85439 0.47637 0.00000 1.0000
  Bi  Bi 0.85439 0.47637 0.00000 1.0000
  Bi  Bi 0.89583 0.49709 0.36895 1.0000
  Bi  Bi 0.89583 0.49709 0.36895 1.0000
  Bi  Bi 0.88383 0.47928 0.63104 1.0000
  Bi  Bi 0.88383 0.47928 0.63104 1.0000
  Bi  Bi 0.87802 0.47637 0.00000 1.0000
  Bi  Bi 0.87802 0.47637 0.00000 1.0000
  Bi  Bi 0.87802 0.47637 0.00000 1.0000
  Bi  Bi 0.87802 0.47637 0.00000 1.0000
  Bi  Bi 0.91946 0.49709 0.36895 1.0000
  Bi  Bi 0.91946 0.49709 0.36895 1.0000
  Bi  Bi 0.90745 0.47928 0.63104 1.0000
  Bi  Bi 0.90745 0.47928 0.63104 1.0000
  Bi  Bi 0.90164 0.47637 0.00000 1.0000
  Bi  Bi 0.90164 0.47637 0.00000 1.0000
  Bi  Bi 0.90164 0.47637 0.00000 1.0000
  Bi  Bi 0.90164 0.47637 0.00000 1.0000
  Bi  Bi 0.94308 0.49709 0.36895 1.0000
  Bi  Bi 0.94308 0.49709 0.36895 1.0000
  Bi  Bi 0.93108 0.47928 0.63104 1.0000
  Bi  Bi 0.93108 0.47928 0.63104 1.0000
  Bi  Bi 0.92527 0.47637 0.00000 1.0000
  Bi  Bi 0.92527 0.47637 0.00000 1.0000
  Bi  Bi 0.92527 0.47637 0.00000 1.0000
  Bi  Bi 0.92527 0.47637 0.00000 1.0000
  Bi  Bi 0.96671 0.49709 0.36895 1.0000
  Bi  Bi 0.96671 0.49709 0.36895 1.0000
  Bi  Bi 0.95470 0.47928 0.63104 1.0000
  Bi  Bi 0.95470 0.47928 0.63104 1.0000
  Bi  Bi 0.94889 0.47637 0.00000 1.0000
  Bi  Bi 0.94889 0.47637 0.00000 1.0000
  Bi  Bi 0.94889 0.47637 0.00000 1.0000
  Bi  Bi 0.94889 0.47637 0.00000 1.0000
  Bi  Bi 0.04530 0.52072 0.36895 1.0000
  Bi  Bi 0.04530 0.52072 0.36895 1.0000
  Bi  Bi 0.03329 0.50291 0.63104 1.0000
  Bi  Bi 0.03329 0.50291 0.63104 1.0000
  Bi  Bi 0.02748 0.50000 0.00000 1.0000
  Bi  Bi 0.02748 0.50000 0.00000 1.0000
  Bi  Bi 0.02748 0.50000 0.00000 1.0000
  Bi  Bi 0.02748 0.50000 0.00000 1.0000
  Bi  Bi 0.06892 0.52072 0.36895 1.0000
  Bi  Bi 0.06892 0.52072 0.36895 1.0000
  Bi  Bi 0.05692 0.50291 0.63104 1.0000
  Bi  Bi 0.05692 0.50291 0.63104 1.0000
  Bi  Bi 0.05111 0.50000 0.00000 1.0000
  Bi  Bi 0.05111 0.50000 0.00000 1.0000
  Bi  Bi 0.05111 0.50000 0.00000 1.0000
  Bi  Bi 0.05111 0.50000 0.00000 1.0000
  Bi  Bi 0.09255 0.52072 0.36895 1.0000
  Bi  Bi 0.09255 0.52072 0.36895 1.0000
  Bi  Bi 0.08054 0.50291 0.63104 1.0000
  Bi  Bi 0.08054 0.50291 0.63104 1.0000
  Bi  Bi 0.07473 0.50000 0.00000 1.0000
  Bi  Bi 0.07473 0.50000 0.00000 1.0000
  Bi  Bi 0.07473 0.50000 0.00000 1.0000
  Bi  Bi 0.07473 0.50000 0.00000 1.0000
  Bi  Bi 0.11617 0.52072 0.36895 1.0000
  Bi  Bi 0.11617 0.52072 0.36895 1.0000
  Bi  Bi 0.10417 0.50291 0.63104 1.0000
  Bi  Bi 0.10417 0.50291 0.63104 1.0000
  Bi  Bi 0.09836 0.50000 0.00000 1.0000
  Bi  Bi 0.09836 0.50000 0.00000 1.0000
  Bi  Bi 0.09836 0.50000 0.00000 1.0000
  Bi  Bi 0.09836 0.50000 0.00000 1.0000
  Bi  Bi 0.13980 0.52072 0.36895 1.0000
  Bi  Bi 0.13980 0.52072 0.36895 1.0000
  Bi  Bi 0.12780 0.50291 0.63104 1.0000
  Bi  Bi 0.12780 0.50291 0.63104 1.0000
  Bi  Bi 0.12198 0.50000 0.00000 1.0000
  Bi  Bi 0.12198 0.50000 0.00000 1.0000
  Bi  Bi 0.12198 0.50000 0.00000 1.0000
  Bi  Bi 0.12198 0.50000 0.00000 1.0000
  Bi  Bi 0.16343 0.52072 0.36895 1.0000
  Bi  Bi 0.16343 0.52072 0.36895 1.0000
  Bi  Bi 0.15142 0.50291 0.63104 1.0000
  Bi  Bi 0.15142 0.50291 0.63104 1.0000
  Bi  Bi 0.14561 0.50000 0.00000 1.0000
  Bi  Bi 0.14561 0.50000 0.00000 1.0000
  Bi  Bi 0.14561 0.50000 0.00000 1.0000
  Bi  Bi 0.14561 0.50000 0.00000 1.0000
  Bi  Bi 0.18705 0.52072 0.36895 1.0000
  Bi  Bi 0.18705 0.52072 0.36895 1.0000
  Bi  Bi 0.17505 0.50291 0.63104 1.0000
  Bi  Bi 0.17505 0.50291 0.63104 1.0000
  Bi  Bi 0.16924 0.50000 0.00000 1.0000
  Bi  Bi 0.16924 0.50000 0.00000 1.0000
  Bi  Bi 0.16924 0.50000 0.00000 1.0000
  Bi  Bi 0.16924 0.50000 0.00000 1.0000
  Bi  Bi 0.21068 0.52072 0.36895 1.0000
  Bi  Bi 0.21068 0.52072 0.36895 1.0000
  Bi  Bi 0.19867 0.50291 0.63104 1.0000
  Bi  Bi 0.19867 0.50291 0.63104 1.0000
  Bi  Bi 0.19286 0.50000 0.00000 1.0000
  Bi  Bi 0.19286 0.50000 0.00000 1.0000
  Bi  Bi 0.19286 0.50000 0.00000 1.0000
  Bi  Bi 0.19286 0.50000 0.00000 1.0000
  Bi  Bi 0.23430 0.52072 0.36895 1.0000
  Bi  Bi 0.23430 0.52072 0.36895 1.0000
  Bi  Bi 0.22230 0.50291 0.63104 1.0000
  Bi  Bi 0.22230 0.50291 0.63104 1.0000
  Bi  Bi 0.21649 0.50000 0.00000 1.0000
  Bi  Bi 0.21649 0.50000 0.00000 1.0000
  Bi  Bi 0.21649 0.50000 0.00000 1.0000
  Bi  Bi 0.21649 0.50000 0.00000 1.0000
  Bi  Bi 0.25793 0.52072 0.36895 1.0000
  Bi  Bi 0.25793 0.52072 0.36895 1.0000
  Bi  Bi 0.24593 0.50291 0.63104 1.0000
  Bi  Bi 0.24593 0.50291 0.63104 1.0000
  Bi  Bi 0.24011 0.50000 0.00000 1.0000
  Bi  Bi 0.24011 0.50000 0.00000 1.0000
  Bi  Bi 0.24011 0.50000 0.00000 1.0000
  Bi  Bi 0.24011 0.50000 0.00000 1.0000
  Bi  Bi 0.28156 0.52072 0.36895 1.0000
  Bi  Bi 0.28156 0.52072 0.36895 1.0000
  Bi  Bi 0.26955 0.50291 0.63104 1.0000
  Bi  Bi 0.26955 0.50291 0.63104 1.0000
  Bi  Bi 0.26374 0.50000 0.00000 1.0000
  Bi  Bi 0.26374 0.50000 0.00000 1.0000
  Bi  Bi 0.26374 0.50000 0.00000 1.0000
  Bi  Bi 0.26374 0.50000 0.00000 1.0000
  Bi  Bi 0.30518 0.52072 0.36895 1.0000
  Bi  Bi 0.30518 0.52072 0.36895 1.0000
  Bi  Bi 0.29318 0.50291 0.63104 1.0000
  Bi  Bi 0.29318 0.50291 0.63104 1.0000
  Bi  Bi 0.28737 0.50000 0.00000 1.0000
  Bi  Bi 0.28737 0.50000 0.00000 1.0000
  Bi  Bi 0.28737 0.50000 0.00000 1.0000
  Bi  Bi 0.28737 0.50000 0.00000 1.0000
  Bi  Bi 0.32881 0.52072 0.36895 1.0000
  Bi  Bi 0.32881 0.52072 0.36895 1.0000
  Bi  Bi 0.31680 0.50291 0.63104 1.0000
  Bi  Bi 0.31680 0.50291 0.63104 1.0000
  Bi  Bi 0.31099 0.50000 0.00000 1.0000
  Bi  Bi 0.31099 0.50000 0.00000 1.0000
  Bi  Bi 0.31099 0.50000 0.00000 1.0000
  Bi  Bi 0.31099 0.50000 0.00000 1.0000
  Bi  Bi 0.35243 0.52072 0.36895 1.0000
  Bi  Bi 0.35243 0.52072 0.36895 1.0000
  Bi  Bi 0.34043 0.50291 0.63104 1.0000
  Bi  Bi 0.34043 0.50291 0.63104 1.0000
  Bi  Bi 0.33462 0.50000 0.00000 1.0000
  Bi  Bi 0.33462 0.50000 0.00000 1.0000
  Bi  Bi 0.33462 0.50000 0.00000 1.0000
  Bi  Bi 0.33462 0.50000 0.00000 1.0000
  Bi  Bi 0.37606 0.52072 0.36895 1.0000
  Bi  Bi 0.37606 0.52072 0.36895 1.0000
  Bi  Bi 0.36406 0.50291 0.63104 1.0000
  Bi  Bi 0.36406 0.50291 0.63104 1.0000
  Bi  Bi 0.35824 0.50000 0.00000 1.0000
  Bi  Bi 0.35824 0.50000 0.00000 1.0000
  Bi  Bi 0.35824 0.50000 0.00000 1.0000
  Bi  Bi 0.35824 0.50000 0.00000 1.0000
  Bi  Bi 0.39968 0.52072 0.36895 1.0000
  Bi  Bi 0.39968 0.52072 0.36895 1.0000
  Bi  Bi 0.38768 0.50291 0.63104 1.0000
  Bi  Bi 0.38768 0.50291 0.63104 1.0000
  Bi  Bi 0.38187 0.50000 0.00000 1.0000
  Bi  Bi 0.38187 0.50000 0.00000 1.0000
  Bi  Bi 0.38187 0.50000 0.00000 1.0000
  Bi  Bi 0.38187 0.50000 0.00000 1.0000
  Bi  Bi 0.42331 0.52072 0.36895 1.0000
  Bi  Bi 0.42331 0.52072 0.36895 1.0000
  Bi  Bi 0.41131 0.50291 0.63104 1.0000
  Bi  Bi 0.41131 0.50291 0.63104 1.0000
  Bi  Bi 0.40550 0.50000 0.00000 1.0000
  Bi  Bi 0.40550 0.50000 0.00000 1.0000
  Bi  Bi 0.40550 0.50000 0.00000 1.0000
  Bi  Bi 0.40550 0.50000 0.00000 1.0000
  Bi  Bi 0.44694 0.52072 0.36895 1.0000
  Bi  Bi 0.44694 0.52072 0.36895 1.0000
  Bi  Bi 0.43493 0.50291 0.63104 1.0000
  Bi  Bi 0.43493 0.50291 0.63104 1.0000
  Bi  Bi 0.42912 0.50000 0.00000 1.0000
  Bi  Bi 0.42912 0.50000 0.00000 1.0000
  Bi  Bi 0.42912 0.50000 0.00000 1.0000
  Bi  Bi 0.42912 0.50000 0.00000 1.0000
  Bi  Bi 0.47056 0.52072 0.36895 1.0000
  Bi  Bi 0.47056 0.52072 0.36895 1.0000
  Bi  Bi 0.45856 0.50291 0.63104 1.0000
  Bi  Bi 0.45856 0.50291 0.63104 1.0000
  Bi  Bi 0.45275 0.50000 0.00000 1.0000
  Bi  Bi 0.45275 0.50000 0.00000 1.0000
  Bi  Bi 0.45275 0.50000 0.00000 1.0000
  Bi  Bi 0.45275 0.50000 0.00000 1.0000
  Bi  Bi 0.49419 0.52072 0.36895 1.0000
  Bi  Bi 0.49419 0.52072 0.36895 1.0000
  Bi  Bi 0.48219 0.50291 0.63104 1.0000
  Bi  Bi 0.48219 0.50291 0.63104 1.0000
  Bi  Bi 0.47637 0.50000 0.00000 1.0000
  Bi  Bi 0.47637 0.50000 0.00000 1.0000
  Bi  Bi 0.47637 0.50000 0.00000 1.0000
  Bi  Bi 0.47637 0.50000 0.00000 1.0000
  Bi  Bi 0.51781 0.52072 0.36895 1.0000
  Bi  Bi 0.51781 0.52072 0.36895 1.0000
  Bi  Bi 0.50581 0.50291 0.63104 1.0000
  Bi  Bi 0.50581 0.50291 0.63104 1.0000
  Bi  Bi 0.50000 0.50000 0.00000 1.0000
  Bi  Bi 0.50000 0.50000 0.00000 1.0000
  Bi  Bi 0.50000 0.50000 0.00000 1.0000
  Bi  Bi 0.50000 0.50000 0.00000 1.0000
  Bi  Bi 0.54144 0.52072 0.36895 1.0000
  Bi  Bi 0.54144 0.52072 0.36895 1.0000
  Bi  Bi 0.52944 0.50291 0.63104 1.0000
  Bi  Bi 0.52944 0.50291 0.63104 1.0000
  Bi  Bi 0.52363 0.50000 0.00000 1.0000
  Bi  Bi 0.52363 0.50000 0.00000 1.0000
  Bi  Bi 0.52363 0.50000 0.00000 1.0000
  Bi  Bi 0.52363 0.50000 0.00000 1.0000
  Bi  Bi 0.56507 0.52072 0.36895 1.0000
  Bi  Bi 0.56507 0.52072 0.36895 1.0000
  Bi  Bi 0.55306 0.50291 0.63104 1.0000
  Bi  Bi 0.55306 0.50291 0.63104 1.0000
  Bi  Bi 0.54725 0.50000 0.00000 1.0000
  Bi  Bi 0.54725 0.50000 0.00000 1.0000
  Bi  Bi 0.54725 0.50000 0.00000 1.0000
  Bi  Bi 0.54725 0.50000 0.00000 1.0000
  Bi  Bi 0.58869 0.52072 0.36895 1.0000
  Bi  Bi 0.58869 0.52072 0.36895 1.0000
  Bi  Bi 0.57669 0.50291 0.63104 1.0000
  Bi  Bi 0.57669 0.50291 0.63104 1.0000
  Bi  Bi 0.57088 0.50000 0.00000 1.0000
  Bi  Bi 0.57088 0.50000 0.00000 1.0000
  Bi  Bi 0.57088 0.50000 0.00000 1.0000
  Bi  Bi 0.57088 0.50000 0.00000 1.0000
  Bi  Bi 0.61232 0.52072 0.36895 1.0000
  Bi  Bi 0.61232 0.52072 0.36895 1.0000
  Bi  Bi 0.60032 0.50291 0.63104 1.0000
  Bi  Bi 0.60032 0.50291 0.63104 1.0000
  Bi  Bi 0.59450 0.50000 0.00000 1.0000
  Bi  Bi 0.59450 0.50000 0.00000 1.0000
  Bi  Bi 0.59450 0.50000 0.00000 1.0000
  Bi  Bi 0.59450 0.50000 0.00000 1.0000
  Bi  Bi 0.63594 0.52072 0.36895 1.0000
  Bi  Bi 0.63594 0.52072 0.36895 1.0000
  Bi  Bi 0.62394 0.50291 0.63104 1.0000
  Bi  Bi 0.62394 0.50291 0.63104 1.0000
  Bi  Bi 0.61813 0.50000 0.00000 1.0000
  Bi  Bi 0.61813 0.50000 0.00000 1.0000
  Bi  Bi 0.61813 0.50000 0.00000 1.0000
  Bi  Bi 0.61813 0.50000 0.00000 1.0000
  Bi  Bi 0.65957 0.52072 0.36895 1.0000
  Bi  Bi 0.65957 0.52072 0.36895 1.0000
  Bi  Bi 0.64757 0.50291 0.63104 1.0000
  Bi  Bi 0.64757 0.50291 0.63104 1.0000
  Bi  Bi 0.64176 0.50000 0.00000 1.0000
  Bi  Bi 0.64176 0.50000 0.00000 1.0000
  Bi  Bi 0.64176 0.50000 0.00000 1.0000
  Bi  Bi 0.64176 0.50000 0.00000 1.0000
  Bi  Bi 0.68320 0.52072 0.36895 1.0000
  Bi  Bi 0.68320 0.52072 0.36895 1.0000
  Bi  Bi 0.67119 0.50291 0.63104 1.0000
  Bi  Bi 0.67119 0.50291 0.63104 1.0000
  Bi  Bi 0.66538 0.50000 0.00000 1.0000
  Bi  Bi 0.66538 0.50000 0.00000 1.0000
  Bi  Bi 0.66538 0.50000 0.00000 1.0000
  Bi  Bi 0.66538 0.50000 0.00000 1.0000
  Bi  Bi 0.70682 0.52072 0.36895 1.0000
  Bi  Bi 0.70682 0.52072 0.36895 1.0000
  Bi  Bi 0.69482 0.50291 0.63104 1.0000
  Bi  Bi 0.69482 0.50291 0.63104 1.0000
  Bi  Bi 0.68901 0.50000 0.00000 1.0000
  Bi  Bi 0.68901 0.50000 0.00000 1.0000
  Bi  Bi 0.68901 0.50000 0.00000 1.0000
  Bi  Bi 0.68901 0.50000 0.00000 1.0000
  Bi  Bi 0.73045 0.52072 0.36895 1.0000
  Bi  Bi 0.73045 0.52072 0.36895 1.0000
  Bi  Bi 0.71844 0.50291 0.63104 1.0000
  Bi  Bi 0.71844 0.50291 0.63104 1.0000
  Bi  Bi 0.71263 0.50000 0.00000 1.0000
  Bi  Bi 0.71263 0.50000 0.00000 1.0000
  Bi  Bi 0.71263 0.50000 0.00000 1.0000
  Bi  Bi 0.71263 0.50000 0.00000 1.0000
  Bi  Bi 0.75407 0.52072 0.36895 1.0000
  Bi  Bi 0.75407 0.52072 0.36895 1.0000
  Bi  Bi 0.74207 0.50291 0.63104 1.0000
  Bi  Bi 0.74207 0.50291 0.63104 1.0000
  Bi  Bi 0.73626 0.50000 0.00000 1.0000
  Bi  Bi 0.73626 0.50000 0.00000 1.0000
  Bi  Bi 0.73626 0.50000 0.00000 1.0000
  Bi  Bi 0.73626 0.50000 0.00000 1.0000
  Bi  Bi 0.77770 0.52072 0.36895 1.0000
  Bi  Bi 0.77770 0.52072 0.36895 1.0000
  Bi  Bi 0.76570 0.50291 0.63104 1.0000
  Bi  Bi 0.76570 0.50291 0.63104 1.0000
  Bi  Bi 0.75989 0.50000 0.00000 1.0000
  Bi  Bi 0.75989 0.50000 0.00000 1.0000
  Bi  Bi 0.75989 0.50000 0.00000 1.0000
  Bi  Bi 0.75989 0.50000 0.00000 1.0000
  Bi  Bi 0.80133 0.52072 0.36895 1.0000
  Bi  Bi 0.80133 0.52072 0.36895 1.0000
  Bi  Bi 0.78932 0.50291 0.63104 1.0000
  Bi  Bi 0.78932 0.50291 0.63104 1.0000
  Bi  Bi 0.78351 0.50000 0.00000 1.0000
  Bi  Bi 0.78351 0.50000 0.00000 1.0000
  Bi  Bi 0.78351 0.50000 0.00000 1.0000
  Bi  Bi 0.78351 0.50000 0.00000 1.0000
  Bi  Bi 0.82495 0.52072 0.36895 1.0000
  Bi  Bi 0.82495 0.52072 0.36895 1.0000
  Bi  Bi 0.81295 0.50291 0.63104 1.0000
  Bi  Bi 0.81295 0.50291 0.63104 1.0000
  Bi  Bi 0.80714 0.50000 0.00000 1.0000
  Bi  Bi 0.80714 0.50000 0.00000 1.0000
  Bi  Bi 0.80714 0.50000 0.00000 1.0000
  Bi  Bi 0.80714 0.50000 0.00000 1.0000
  Bi  Bi 0.84858 0.52072 0.36895 1.0000
  Bi  Bi 0.84858 0.52072 0.36895 1.0000
  Bi  Bi 0.83657 0.50291 0.63104 1.0000
  Bi  Bi 0.83657 0.50291 0.63104 1.0000
  Bi  Bi 0.83076 0.50000 0.00000 1.0000
  Bi  Bi 0.83076 0.50000 0.00000 1.0000
  Bi  Bi 0.83076 0.50000 0.00000 1.0000
  Bi  Bi 0.83076 0.50000 0.00000 1.0000
  Bi  Bi 0.87220 0.52072 0.36895 1.0000
  Bi  Bi 0.87220 0.52072 0.36895 1.0000
  Bi  Bi 0.86020 0.50291 0.63104 1.0000
  Bi  Bi 0.86020 0.50291 0.63104 1.0000
  Bi  Bi 0.85439 0.50000 0.00000 1.0000
  Bi  Bi 0.85439 0.50000 0.00000 1.0000
  Bi  Bi 0.85439 0.50000 0.00000 1.0000
  Bi  Bi 0.85439 0.50000 0.00000 1.0000
  Bi  Bi 0.89583 0.52072 0.36895 1.0000
  Bi  Bi 0.89583 0.52072 0.36895 1.0000
  Bi  Bi 0.88383 0.50291 0.63104 1.0000
  Bi  Bi 0.88383 0.50291 0.63104 1.0000
  Bi  Bi 0.87802 0.50000 0.00000 1.0000
  Bi  Bi 0.87802 0.50000 0.00000 1.0000
  Bi  Bi 0.87802 0.50000 0.00000 1.0000
  Bi  Bi 0.87802 0.50000 0.00000 1.0000
  Bi  Bi 0.91946 0.52072 0.36895 1.0000
  Bi  Bi 0.91946 0.52072 0.36895 1.0000
  Bi  Bi 0.90745 0.50291 0.63104 1.0000
  Bi  Bi 0.90745 0.50291 0.63104 1.0000
  Bi  Bi 0.90164 0.50000 0.00000 1.0000
  Bi  Bi 0.90164 0.50000 0.00000 1.0000
  Bi  Bi 0.90164 0.50000 0.00000 1.0000
  Bi  Bi 0.90164 0.50000 0.00000 1.0000
  Bi  Bi 0.94308 0.52072 0.36895 1.0000
  Bi  Bi 0.94308 0.52072 0.36895 1.0000
  Bi  Bi 0.93108 0.50291 0.63104 1.0000
  Bi  Bi 0.93108 0.50291 0.63104 1.0000
  Bi  Bi 0.92527 0.50000 0.00000 1.0000
  Bi  Bi 0.92527 0.50000 0.00000 1.0000
  Bi  Bi 0.92527 0.50000 0.00000 1.0000
  Bi  Bi 0.92527 0.50000 0.00000 1.0000
  Bi  Bi 0.96671 0.52072 0.36895 1.0000
  Bi  Bi 0.96671 0.52072 0.36895 1.0000
  Bi  Bi 0.95470 0.50291 0.63104 1.0000
  Bi  Bi 0.95470 0.50291 0.63104 1.0000
  Bi  Bi 0.94889 0.50000 0.00000 1.0000
  Bi  Bi 0.94889 0.50000 0.00000 1.0000
  Bi  Bi 0.94889 0.50000 0.00000 1.0000
  Bi  Bi 0.94889 0.50000 0.00000 1.0000
  Bi  Bi 0.04530 0.54435 0.36895 1.0000
  Bi  Bi 0.04530 0.54435 0.36895 1.0000
  Bi  Bi 0.03329 0.52653 0.63104 1.0000
  Bi  Bi 0.03329 0.52653 0.63104 1.0000
  Bi  Bi 0.02748 0.52363 0.00000 1.0000
  Bi  Bi 0.02748 0.52363 0.00000 1.0000
  Bi  Bi 0.02748 0.52363 0.00000 1.0000
  Bi  Bi 0.02748 0.52363 0.00000 1.0000
  Bi  Bi 0.06892 0.54435 0.36895 1.0000
  Bi  Bi 0.06892 0.54435 0.36895 1.0000
  Bi  Bi 0.05692 0.52653 0.63104 1.0000
  Bi  Bi 0.05692 0.52653 0.63104 1.0000
  Bi  Bi 0.05111 0.52363 0.00000 1.0000
  Bi  Bi 0.05111 0.52363 0.00000 1.0000
  Bi  Bi 0.05111 0.52363 0.00000 1.0000
  Bi  Bi 0.05111 0.52363 0.00000 1.0000
  Bi  Bi 0.09255 0.54435 0.36895 1.0000
  Bi  Bi 0.09255 0.54435 0.36895 1.0000
  Bi  Bi 0.08054 0.52653 0.63104 1.0000
  Bi  Bi 0.08054 0.52653 0.63104 1.0000
  Bi  Bi 0.07473 0.52363 0.00000 1.0000
  Bi  Bi 0.07473 0.52363 0.00000 1.0000
  Bi  Bi 0.07473 0.52363 0.00000 1.0000
  Bi  Bi 0.07473 0.52363 0.00000 1.0000
  Bi  Bi 0.11617 0.54435 0.36895 1.0000
  Bi  Bi 0.11617 0.54435 0.36895 1.0000
  Bi  Bi 0.10417 0.52653 0.63104 1.0000
  Bi  Bi 0.10417 0.52653 0.63104 1.0000
  Bi  Bi 0.09836 0.52363 0.00000 1.0000
  Bi  Bi 0.09836 0.52363 0.00000 1.0000
  Bi  Bi 0.09836 0.52363 0.00000 1.0000
  Bi  Bi 0.09836 0.52363 0.00000 1.0000
  Bi  Bi 0.13980 0.54435 0.36895 1.0000
  Bi  Bi 0.13980 0.54435 0.36895 1.0000
  Bi  Bi 0.12780 0.52653 0.63104 1.0000
  Bi  Bi 0.12780 0.52653 0.63104 1.0000
  Bi  Bi 0.12198 0.52363 0.00000 1.0000
  Bi  Bi 0.12198 0.52363 0.00000 1.0000
  Bi  Bi 0.12198 0.52363 0.00000 1.0000
  Bi  Bi 0.12198 0.52363 0.00000 1.0000
  Bi  Bi 0.16343 0.54435 0.36895 1.0000
  Bi  Bi 0.16343 0.54435 0.36895 1.0000
  Bi  Bi 0.15142 0.52653 0.63104 1.0000
  Bi  Bi 0.15142 0.52653 0.63104 1.0000
  Bi  Bi 0.14561 0.52363 0.00000 1.0000
  Bi  Bi 0.14561 0.52363 0.00000 1.0000
  Bi  Bi 0.14561 0.52363 0.00000 1.0000
  Bi  Bi 0.14561 0.52363 0.00000 1.0000
  Bi  Bi 0.18705 0.54435 0.36895 1.0000
  Bi  Bi 0.18705 0.54435 0.36895 1.0000
  Bi  Bi 0.17505 0.52653 0.63104 1.0000
  Bi  Bi 0.17505 0.52653 0.63104 1.0000
  Bi  Bi 0.16924 0.52363 0.00000 1.0000
  Bi  Bi 0.16924 0.52363 0.00000 1.0000
  Bi  Bi 0.16924 0.52363 0.00000 1.0000
  Bi  Bi 0.16924 0.52363 0.00000 1.0000
  Bi  Bi 0.21068 0.54435 0.36895 1.0000
  Bi  Bi 0.21068 0.54435 0.36895 1.0000
  Bi  Bi 0.19867 0.52653 0.63104 1.0000
  Bi  Bi 0.19867 0.52653 0.63104 1.0000
  Bi  Bi 0.19286 0.52363 0.00000 1.0000
  Bi  Bi 0.19286 0.52363 0.00000 1.0000
  Bi  Bi 0.19286 0.52363 0.00000 1.0000
  Bi  Bi 0.19286 0.52363 0.00000 1.0000
  Bi  Bi 0.23430 0.54435 0.36895 1.0000
  Bi  Bi 0.23430 0.54435 0.36895 1.0000
  Bi  Bi 0.22230 0.52653 0.63104 1.0000
  Bi  Bi 0.22230 0.52653 0.63104 1.0000
  Bi  Bi 0.21649 0.52363 0.00000 1.0000
  Bi  Bi 0.21649 0.52363 0.00000 1.0000
  Bi  Bi 0.21649 0.52363 0.00000 1.0000
  Bi  Bi 0.21649 0.52363 0.00000 1.0000
  Bi  Bi 0.25793 0.54435 0.36895 1.0000
  Bi  Bi 0.25793 0.54435 0.36895 1.0000
  Bi  Bi 0.24593 0.52653 0.63104 1.0000
  Bi  Bi 0.24593 0.52653 0.63104 1.0000
  Bi  Bi 0.24011 0.52363 0.00000 1.0000
  Bi  Bi 0.24011 0.52363 0.00000 1.0000
  Bi  Bi 0.24011 0.52363 0.00000 1.0000
  Bi  Bi 0.24011 0.52363 0.00000 1.0000
  Bi  Bi 0.28156 0.54435 0.36895 1.0000
  Bi  Bi 0.28156 0.54435 0.36895 1.0000
  Bi  Bi 0.26955 0.52653 0.63104 1.0000
  Bi  Bi 0.26955 0.52653 0.63104 1.0000
  Bi  Bi 0.26374 0.52363 0.00000 1.0000
  Bi  Bi 0.26374 0.52363 0.00000 1.0000
  Bi  Bi 0.26374 0.52363 0.00000 1.0000
  Bi  Bi 0.26374 0.52363 0.00000 1.0000
  Bi  Bi 0.30518 0.54435 0.36895 1.0000
  Bi  Bi 0.30518 0.54435 0.36895 1.0000
  Bi  Bi 0.29318 0.52653 0.63104 1.0000
  Bi  Bi 0.29318 0.52653 0.63104 1.0000
  Bi  Bi 0.28737 0.52363 0.00000 1.0000
  Bi  Bi 0.28737 0.52363 0.00000 1.0000
  Bi  Bi 0.28737 0.52363 0.00000 1.0000
  Bi  Bi 0.28737 0.52363 0.00000 1.0000
  Bi  Bi 0.32881 0.54435 0.36895 1.0000
  Bi  Bi 0.32881 0.54435 0.36895 1.0000
  Bi  Bi 0.31680 0.52653 0.63104 1.0000
  Bi  Bi 0.31680 0.52653 0.63104 1.0000
  Bi  Bi 0.31099 0.52363 0.00000 1.0000
  Bi  Bi 0.31099 0.52363 0.00000 1.0000
  Bi  Bi 0.31099 0.52363 0.00000 1.0000
  Bi  Bi 0.31099 0.52363 0.00000 1.0000
  Bi  Bi 0.35243 0.54435 0.36895 1.0000
  Bi  Bi 0.35243 0.54435 0.36895 1.0000
  Bi  Bi 0.34043 0.52653 0.63104 1.0000
  Bi  Bi 0.34043 0.52653 0.63104 1.0000
  Bi  Bi 0.33462 0.52363 0.00000 1.0000
  Bi  Bi 0.33462 0.52363 0.00000 1.0000
  Bi  Bi 0.33462 0.52363 0.00000 1.0000
  Bi  Bi 0.33462 0.52363 0.00000 1.0000
  Bi  Bi 0.37606 0.54435 0.36895 1.0000
  Bi  Bi 0.37606 0.54435 0.36895 1.0000
  Bi  Bi 0.36406 0.52653 0.63104 1.0000
  Bi  Bi 0.36406 0.52653 0.63104 1.0000
  Bi  Bi 0.35824 0.52363 0.00000 1.0000
  Bi  Bi 0.35824 0.52363 0.00000 1.0000
  Bi  Bi 0.35824 0.52363 0.00000 1.0000
  Bi  Bi 0.35824 0.52363 0.00000 1.0000
  Bi  Bi 0.39968 0.54435 0.36895 1.0000
  Bi  Bi 0.39968 0.54435 0.36895 1.0000
  Bi  Bi 0.38768 0.52653 0.63104 1.0000
  Bi  Bi 0.38768 0.52653 0.63104 1.0000
  Bi  Bi 0.38187 0.52363 0.00000 1.0000
  Bi  Bi 0.38187 0.52363 0.00000 1.0000
  Bi  Bi 0.38187 0.52363 0.00000 1.0000
  Bi  Bi 0.38187 0.52363 0.00000 1.0000
  Bi  Bi 0.42331 0.54435 0.36895 1.0000
  Bi  Bi 0.42331 0.54435 0.36895 1.0000
  Bi  Bi 0.41131 0.52653 0.63104 1.0000
  Bi  Bi 0.41131 0.52653 0.63104 1.0000
  Bi  Bi 0.40550 0.52363 0.00000 1.0000
  Bi  Bi 0.40550 0.52363 0.00000 1.0000
  Bi  Bi 0.40550 0.52363 0.00000 1.0000
  Bi  Bi 0.40550 0.52363 0.00000 1.0000
  Bi  Bi 0.44694 0.54435 0.36895 1.0000
  Bi  Bi 0.44694 0.54435 0.36895 1.0000
  Bi  Bi 0.43493 0.52653 0.63104 1.0000
  Bi  Bi 0.43493 0.52653 0.63104 1.0000
  Bi  Bi 0.42912 0.52363 0.00000 1.0000
  Bi  Bi 0.42912 0.52363 0.00000 1.0000
  Bi  Bi 0.42912 0.52363 0.00000 1.0000
  Bi  Bi 0.42912 0.52363 0.00000 1.0000
  Bi  Bi 0.47056 0.54435 0.36895 1.0000
  Bi  Bi 0.47056 0.54435 0.36895 1.0000
  Bi  Bi 0.45856 0.52653 0.63104 1.0000
  Bi  Bi 0.45856 0.52653 0.63104 1.0000
  Bi  Bi 0.45275 0.52363 0.00000 1.0000
  Bi  Bi 0.45275 0.52363 0.00000 1.0000
  Bi  Bi 0.45275 0.52363 0.00000 1.0000
  Bi  Bi 0.45275 0.52363 0.00000 1.0000
  Bi  Bi 0.49419 0.54435 0.36895 1.0000
  Bi  Bi 0.49419 0.54435 0.36895 1.0000
  Bi  Bi 0.48219 0.52653 0.63104 1.0000
  Bi  Bi 0.48219 0.52653 0.63104 1.0000
  Bi  Bi 0.47637 0.52363 0.00000 1.0000
  Bi  Bi 0.47637 0.52363 0.00000 1.0000
  Bi  Bi 0.47637 0.52363 0.00000 1.0000
  Bi  Bi 0.47637 0.52363 0.00000 1.0000
  Bi  Bi 0.51781 0.54435 0.36895 1.0000
  Bi  Bi 0.51781 0.54435 0.36895 1.0000
  Bi  Bi 0.50581 0.52653 0.63104 1.0000
  Bi  Bi 0.50581 0.52653 0.63104 1.0000
  Bi  Bi 0.50000 0.52363 0.00000 1.0000
  Bi  Bi 0.50000 0.52363 0.00000 1.0000
  Bi  Bi 0.50000 0.52363 0.00000 1.0000
  Bi  Bi 0.50000 0.52363 0.00000 1.0000
  Bi  Bi 0.54144 0.54435 0.36895 1.0000
  Bi  Bi 0.54144 0.54435 0.36895 1.0000
  Bi  Bi 0.52944 0.52653 0.63104 1.0000
  Bi  Bi 0.52944 0.52653 0.63104 1.0000
  Bi  Bi 0.52363 0.52363 0.00000 1.0000
  Bi  Bi 0.52363 0.52363 0.00000 1.0000
  Bi  Bi 0.52363 0.52363 0.00000 1.0000
  Bi  Bi 0.52363 0.52363 0.00000 1.0000
  Bi  Bi 0.56507 0.54435 0.36895 1.0000
  Bi  Bi 0.56507 0.54435 0.36895 1.0000
  Bi  Bi 0.55306 0.52653 0.63104 1.0000
  Bi  Bi 0.55306 0.52653 0.63104 1.0000
  Bi  Bi 0.54725 0.52363 0.00000 1.0000
  Bi  Bi 0.54725 0.52363 0.00000 1.0000
  Bi  Bi 0.54725 0.52363 0.00000 1.0000
  Bi  Bi 0.54725 0.52363 0.00000 1.0000
  Bi  Bi 0.58869 0.54435 0.36895 1.0000
  Bi  Bi 0.58869 0.54435 0.36895 1.0000
  Bi  Bi 0.57669 0.52653 0.63104 1.0000
  Bi  Bi 0.57669 0.52653 0.63104 1.0000
  Bi  Bi 0.57088 0.52363 0.00000 1.0000
  Bi  Bi 0.57088 0.52363 0.00000 1.0000
  Bi  Bi 0.57088 0.52363 0.00000 1.0000
  Bi  Bi 0.57088 0.52363 0.00000 1.0000
  Bi  Bi 0.61232 0.54435 0.36895 1.0000
  Bi  Bi 0.61232 0.54435 0.36895 1.0000
  Bi  Bi 0.60032 0.52653 0.63104 1.0000
  Bi  Bi 0.60032 0.52653 0.63104 1.0000
  Bi  Bi 0.59450 0.52363 0.00000 1.0000
  Bi  Bi 0.59450 0.52363 0.00000 1.0000
  Bi  Bi 0.59450 0.52363 0.00000 1.0000
  Bi  Bi 0.59450 0.52363 0.00000 1.0000
  Bi  Bi 0.63594 0.54435 0.36895 1.0000
  Bi  Bi 0.63594 0.54435 0.36895 1.0000
  Bi  Bi 0.62394 0.52653 0.63104 1.0000
  Bi  Bi 0.62394 0.52653 0.63104 1.0000
  Bi  Bi 0.61813 0.52363 0.00000 1.0000
  Bi  Bi 0.61813 0.52363 0.00000 1.0000
  Bi  Bi 0.61813 0.52363 0.00000 1.0000
  Bi  Bi 0.61813 0.52363 0.00000 1.0000
  Bi  Bi 0.65957 0.54435 0.36895 1.0000
  Bi  Bi 0.65957 0.54435 0.36895 1.0000
  Bi  Bi 0.64757 0.52653 0.63104 1.0000
  Bi  Bi 0.64757 0.52653 0.63104 1.0000
  Bi  Bi 0.64176 0.52363 0.00000 1.0000
  Bi  Bi 0.64176 0.52363 0.00000 1.0000
  Bi  Bi 0.64176 0.52363 0.00000 1.0000
  Bi  Bi 0.64176 0.52363 0.00000 1.0000
  Bi  Bi 0.68320 0.54435 0.36895 1.0000
  Bi  Bi 0.68320 0.54435 0.36895 1.0000
  Bi  Bi 0.67119 0.52653 0.63104 1.0000
  Bi  Bi 0.67119 0.52653 0.63104 1.0000
  Bi  Bi 0.66538 0.52363 0.00000 1.0000
  Bi  Bi 0.66538 0.52363 0.00000 1.0000
  Bi  Bi 0.66538 0.52363 0.00000 1.0000
  Bi  Bi 0.66538 0.52363 0.00000 1.0000
  Bi  Bi 0.70682 0.54435 0.36895 1.0000
  Bi  Bi 0.70682 0.54435 0.36895 1.0000
  Bi  Bi 0.69482 0.52653 0.63104 1.0000
  Bi  Bi 0.69482 0.52653 0.63104 1.0000
  Bi  Bi 0.68901 0.52363 0.00000 1.0000
  Bi  Bi 0.68901 0.52363 0.00000 1.0000
  Bi  Bi 0.68901 0.52363 0.00000 1.0000
  Bi  Bi 0.68901 0.52363 0.00000 1.0000
  Bi  Bi 0.73045 0.54435 0.36895 1.0000
  Bi  Bi 0.73045 0.54435 0.36895 1.0000
  Bi  Bi 0.71844 0.52653 0.63104 1.0000
  Bi  Bi 0.71844 0.52653 0.63104 1.0000
  Bi  Bi 0.71263 0.52363 0.00000 1.0000
  Bi  Bi 0.71263 0.52363 0.00000 1.0000
  Bi  Bi 0.71263 0.52363 0.00000 1.0000
  Bi  Bi 0.71263 0.52363 0.00000 1.0000
  Bi  Bi 0.75407 0.54435 0.36895 1.0000
  Bi  Bi 0.75407 0.54435 0.36895 1.0000
  Bi  Bi 0.74207 0.52653 0.63104 1.0000
  Bi  Bi 0.74207 0.52653 0.63104 1.0000
  Bi  Bi 0.73626 0.52363 0.00000 1.0000
  Bi  Bi 0.73626 0.52363 0.00000 1.0000
  Bi  Bi 0.73626 0.52363 0.00000 1.0000
  Bi  Bi 0.73626 0.52363 0.00000 1.0000
  Bi  Bi 0.77770 0.54435 0.36895 1.0000
  Bi  Bi 0.77770 0.54435 0.36895 1.0000
  Bi  Bi 0.76570 0.52653 0.63104 1.0000
  Bi  Bi 0.76570 0.52653 0.63104 1.0000
  Bi  Bi 0.75989 0.52363 0.00000 1.0000
  Bi  Bi 0.75989 0.52363 0.00000 1.0000
  Bi  Bi 0.75989 0.52363 0.00000 1.0000
  Bi  Bi 0.75989 0.52363 0.00000 1.0000
  Bi  Bi 0.80133 0.54435 0.36895 1.0000
  Bi  Bi 0.80133 0.54435 0.36895 1.0000
  Bi  Bi 0.78932 0.52653 0.63104 1.0000
  Bi  Bi 0.78932 0.52653 0.63104 1.0000
  Bi  Bi 0.78351 0.52363 0.00000 1.0000
  Bi  Bi 0.78351 0.52363 0.00000 1.0000
  Bi  Bi 0.78351 0.52363 0.00000 1.0000
  Bi  Bi 0.78351 0.52363 0.00000 1.0000
  Bi  Bi 0.82495 0.54435 0.36895 1.0000
  Bi  Bi 0.82495 0.54435 0.36895 1.0000
  Bi  Bi 0.81295 0.52653 0.63104 1.0000
  Bi  Bi 0.81295 0.52653 0.63104 1.0000
  Bi  Bi 0.80714 0.52363 0.00000 1.0000
  Bi  Bi 0.80714 0.52363 0.00000 1.0000
  Bi  Bi 0.80714 0.52363 0.00000 1.0000
  Bi  Bi 0.80714 0.52363 0.00000 1.0000
  Bi  Bi 0.84858 0.54435 0.36895 1.0000
  Bi  Bi 0.84858 0.54435 0.36895 1.0000
  Bi  Bi 0.83657 0.52653 0.63104 1.0000
  Bi  Bi 0.83657 0.52653 0.63104 1.0000
  Bi  Bi 0.83076 0.52363 0.00000 1.0000
  Bi  Bi 0.83076 0.52363 0.00000 1.0000
  Bi  Bi 0.83076 0.52363 0.00000 1.0000
  Bi  Bi 0.83076 0.52363 0.00000 1.0000
  Bi  Bi 0.87220 0.54435 0.36895 1.0000
  Bi  Bi 0.87220 0.54435 0.36895 1.0000
  Bi  Bi 0.86020 0.52653 0.63104 1.0000
  Bi  Bi 0.86020 0.52653 0.63104 1.0000
  Bi  Bi 0.85439 0.52363 0.00000 1.0000
  Bi  Bi 0.85439 0.52363 0.00000 1.0000
  Bi  Bi 0.85439 0.52363 0.00000 1.0000
  Bi  Bi 0.85439 0.52363 0.00000 1.0000
  Bi  Bi 0.89583 0.54435 0.36895 1.0000
  Bi  Bi 0.89583 0.54435 0.36895 1.0000
  Bi  Bi 0.88383 0.52653 0.63104 1.0000
  Bi  Bi 0.88383 0.52653 0.63104 1.0000
  Bi  Bi 0.87802 0.52363 0.00000 1.0000
  Bi  Bi 0.87802 0.52363 0.00000 1.0000
  Bi  Bi 0.87802 0.52363 0.00000 1.0000
  Bi  Bi 0.87802 0.52363 0.00000 1.0000
  Bi  Bi 0.91946 0.54435 0.36895 1.0000
  Bi  Bi 0.91946 0.54435 0.36895 1.0000
  Bi  Bi 0.90745 0.52653 0.63104 1.0000
  Bi  Bi 0.90745 0.52653 0.63104 1.0000
  Bi  Bi 0.90164 0.52363 0.00000 1.0000
  Bi  Bi 0.90164 0.52363 0.00000 1.0000
  Bi  Bi 0.90164 0.52363 0.00000 1.0000
  Bi  Bi 0.90164 0.52363 0.00000 1.0000
  Bi  Bi 0.94308 0.54435 0.36895 1.0000
  Bi  Bi 0.94308 0.54435 0.36895 1.0000
  Bi  Bi 0.93108 0.52653 0.63104 1.0000
  Bi  Bi 0.93108 0.52653 0.63104 1.0000
  Bi  Bi 0.92527 0.52363 0.00000 1.0000
  Bi  Bi 0.92527 0.52363 0.00000 1.0000
  Bi  Bi 0.92527 0.52363 0.00000 1.0000
  Bi  Bi 0.92527 0.52363 0.00000 1.0000
  Bi  Bi 0.96671 0.54435 0.36895 1.0000
  Bi  Bi 0.96671 0.54435 0.36895 1.0000
  Bi  Bi 0.95470 0.52653 0.63104 1.0000
  Bi  Bi 0.95470 0.52653 0.63104 1.0000
  Bi  Bi 0.94889 0.52363 0.00000 1.0000
  Bi  Bi 0.94889 0.52363 0.00000 1.0000
  Bi  Bi 0.94889 0.52363 0.00000 1.0000
  Bi  Bi 0.94889 0.52363 0.00000 1.0000
  Bi  Bi 0.04530 0.56797 0.36895 1.0000
  Bi  Bi 0.04530 0.56797 0.36895 1.0000
  Bi  Bi 0.03329 0.55016 0.63104 1.0000
  Bi  Bi 0.03329 0.55016 0.63104 1.0000
  Bi  Bi 0.02748 0.54725 0.00000 1.0000
  Bi  Bi 0.02748 0.54725 0.00000 1.0000
  Bi  Bi 0.02748 0.54725 0.00000 1.0000
  Bi  Bi 0.02748 0.54725 0.00000 1.0000
  Bi  Bi 0.06892 0.56797 0.36895 1.0000
  Bi  Bi 0.06892 0.56797 0.36895 1.0000
  Bi  Bi 0.05692 0.55016 0.63104 1.0000
  Bi  Bi 0.05692 0.55016 0.63104 1.0000
  Bi  Bi 0.05111 0.54725 0.00000 1.0000
  Bi  Bi 0.05111 0.54725 0.00000 1.0000
  Bi  Bi 0.05111 0.54725 0.00000 1.0000
  Bi  Bi 0.05111 0.54725 0.00000 1.0000
  Bi  Bi 0.09255 0.56797 0.36895 1.0000
  Bi  Bi 0.09255 0.56797 0.36895 1.0000
  Bi  Bi 0.08054 0.55016 0.63104 1.0000
  Bi  Bi 0.08054 0.55016 0.63104 1.0000
  Bi  Bi 0.07473 0.54725 0.00000 1.0000
  Bi  Bi 0.07473 0.54725 0.00000 1.0000
  Bi  Bi 0.07473 0.54725 0.00000 1.0000
  Bi  Bi 0.07473 0.54725 0.00000 1.0000
  Bi  Bi 0.11617 0.56797 0.36895 1.0000
  Bi  Bi 0.11617 0.56797 0.36895 1.0000
  Bi  Bi 0.10417 0.55016 0.63104 1.0000
  Bi  Bi 0.10417 0.55016 0.63104 1.0000
  Bi  Bi 0.09836 0.54725 0.00000 1.0000
  Bi  Bi 0.09836 0.54725 0.00000 1.0000
  Bi  Bi 0.09836 0.54725 0.00000 1.0000
  Bi  Bi 0.09836 0.54725 0.00000 1.0000
  Bi  Bi 0.13980 0.56797 0.36895 1.0000
  Bi  Bi 0.13980 0.56797 0.36895 1.0000
  Bi  Bi 0.12780 0.55016 0.63104 1.0000
  Bi  Bi 0.12780 0.55016 0.63104 1.0000
  Bi  Bi 0.12198 0.54725 0.00000 1.0000
  Bi  Bi 0.12198 0.54725 0.00000 1.0000
  Bi  Bi 0.12198 0.54725 0.00000 1.0000
  Bi  Bi 0.12198 0.54725 0.00000 1.0000
  Bi  Bi 0.16343 0.56797 0.36895 1.0000
  Bi  Bi 0.16343 0.56797 0.36895 1.0000
  Bi  Bi 0.15142 0.55016 0.63104 1.0000
  Bi  Bi 0.15142 0.55016 0.63104 1.0000
  Bi  Bi 0.14561 0.54725 0.00000 1.0000
  Bi  Bi 0.14561 0.54725 0.00000 1.0000
  Bi  Bi 0.14561 0.54725 0.00000 1.0000
  Bi  Bi 0.14561 0.54725 0.00000 1.0000
  Bi  Bi 0.18705 0.56797 0.36895 1.0000
  Bi  Bi 0.18705 0.56797 0.36895 1.0000
  Bi  Bi 0.17505 0.55016 0.63104 1.0000
  Bi  Bi 0.17505 0.55016 0.63104 1.0000
  Bi  Bi 0.16924 0.54725 0.00000 1.0000
  Bi  Bi 0.16924 0.54725 0.00000 1.0000
  Bi  Bi 0.16924 0.54725 0.00000 1.0000
  Bi  Bi 0.16924 0.54725 0.00000 1.0000
  Bi  Bi 0.21068 0.56797 0.36895 1.0000
  Bi  Bi 0.21068 0.56797 0.36895 1.0000
  Bi  Bi 0.19867 0.55016 0.63104 1.0000
  Bi  Bi 0.19867 0.55016 0.63104 1.0000
  Bi  Bi 0.19286 0.54725 0.00000 1.0000
  Bi  Bi 0.19286 0.54725 0.00000 1.0000
  Bi  Bi 0.19286 0.54725 0.00000 1.0000
  Bi  Bi 0.19286 0.54725 0.00000 1.0000
  Bi  Bi 0.23430 0.56797 0.36895 1.0000
  Bi  Bi 0.23430 0.56797 0.36895 1.0000
  Bi  Bi 0.22230 0.55016 0.63104 1.0000
  Bi  Bi 0.22230 0.55016 0.63104 1.0000
  Bi  Bi 0.21649 0.54725 0.00000 1.0000
  Bi  Bi 0.21649 0.54725 0.00000 1.0000
  Bi  Bi 0.21649 0.54725 0.00000 1.0000
  Bi  Bi 0.21649 0.54725 0.00000 1.0000
  Bi  Bi 0.25793 0.56797 0.36895 1.0000
  Bi  Bi 0.25793 0.56797 0.36895 1.0000
  Bi  Bi 0.24593 0.55016 0.63104 1.0000
  Bi  Bi 0.24593 0.55016 0.63104 1.0000
  Bi  Bi 0.24011 0.54725 0.00000 1.0000
  Bi  Bi 0.24011 0.54725 0.00000 1.0000
  Bi  Bi 0.24011 0.54725 0.00000 1.0000
  Bi  Bi 0.24011 0.54725 0.00000 1.0000
  Bi  Bi 0.28156 0.56797 0.36895 1.0000
  Bi  Bi 0.28156 0.56797 0.36895 1.0000
  Bi  Bi 0.26955 0.55016 0.63104 1.0000
  Bi  Bi 0.26955 0.55016 0.63104 1.0000
  Bi  Bi 0.26374 0.54725 0.00000 1.0000
  Bi  Bi 0.26374 0.54725 0.00000 1.0000
  Bi  Bi 0.26374 0.54725 0.00000 1.0000
  Bi  Bi 0.26374 0.54725 0.00000 1.0000
  Bi  Bi 0.30518 0.56797 0.36895 1.0000
  Bi  Bi 0.30518 0.56797 0.36895 1.0000
  Bi  Bi 0.29318 0.55016 0.63104 1.0000
  Bi  Bi 0.29318 0.55016 0.63104 1.0000
  Bi  Bi 0.28737 0.54725 0.00000 1.0000
  Bi  Bi 0.28737 0.54725 0.00000 1.0000
  Bi  Bi 0.28737 0.54725 0.00000 1.0000
  Bi  Bi 0.28737 0.54725 0.00000 1.0000
  Bi  Bi 0.32881 0.56797 0.36895 1.0000
  Bi  Bi 0.32881 0.56797 0.36895 1.0000
  Bi  Bi 0.31680 0.55016 0.63104 1.0000
  Bi  Bi 0.31680 0.55016 0.63104 1.0000
  Bi  Bi 0.31099 0.54725 0.00000 1.0000
  Bi  Bi 0.31099 0.54725 0.00000 1.0000
  Bi  Bi 0.31099 0.54725 0.00000 1.0000
  Bi  Bi 0.31099 0.54725 0.00000 1.0000
  Bi  Bi 0.35243 0.56797 0.36895 1.0000
  Bi  Bi 0.35243 0.56797 0.36895 1.0000
  Bi  Bi 0.34043 0.55016 0.63104 1.0000
  Bi  Bi 0.34043 0.55016 0.63104 1.0000
  Bi  Bi 0.33462 0.54725 0.00000 1.0000
  Bi  Bi 0.33462 0.54725 0.00000 1.0000
  Bi  Bi 0.33462 0.54725 0.00000 1.0000
  Bi  Bi 0.33462 0.54725 0.00000 1.0000
  Bi  Bi 0.37606 0.56797 0.36895 1.0000
  Bi  Bi 0.37606 0.56797 0.36895 1.0000
  Bi  Bi 0.36406 0.55016 0.63104 1.0000
  Bi  Bi 0.36406 0.55016 0.63104 1.0000
  Bi  Bi 0.35824 0.54725 0.00000 1.0000
  Bi  Bi 0.35824 0.54725 0.00000 1.0000
  Bi  Bi 0.35824 0.54725 0.00000 1.0000
  Bi  Bi 0.35824 0.54725 0.00000 1.0000
  Bi  Bi 0.39968 0.56797 0.36895 1.0000
  Bi  Bi 0.39968 0.56797 0.36895 1.0000
  Bi  Bi 0.38768 0.55016 0.63104 1.0000
  Bi  Bi 0.38768 0.55016 0.63104 1.0000
  Bi  Bi 0.38187 0.54725 0.00000 1.0000
  Bi  Bi 0.38187 0.54725 0.00000 1.0000
  Bi  Bi 0.38187 0.54725 0.00000 1.0000
  Bi  Bi 0.38187 0.54725 0.00000 1.0000
  Bi  Bi 0.42331 0.56797 0.36895 1.0000
  Bi  Bi 0.42331 0.56797 0.36895 1.0000
  Bi  Bi 0.41131 0.55016 0.63104 1.0000
  Bi  Bi 0.41131 0.55016 0.63104 1.0000
  Bi  Bi 0.40550 0.54725 0.00000 1.0000
  Bi  Bi 0.40550 0.54725 0.00000 1.0000
  Bi  Bi 0.40550 0.54725 0.00000 1.0000
  Bi  Bi 0.40550 0.54725 0.00000 1.0000
  Bi  Bi 0.44694 0.56797 0.36895 1.0000
  Bi  Bi 0.44694 0.56797 0.36895 1.0000
  Bi  Bi 0.43493 0.55016 0.63104 1.0000
  Bi  Bi 0.43493 0.55016 0.63104 1.0000
  Bi  Bi 0.42912 0.54725 0.00000 1.0000
  Bi  Bi 0.42912 0.54725 0.00000 1.0000
  Bi  Bi 0.42912 0.54725 0.00000 1.0000
  Bi  Bi 0.42912 0.54725 0.00000 1.0000
  Bi  Bi 0.47056 0.56797 0.36895 1.0000
  Bi  Bi 0.47056 0.56797 0.36895 1.0000
  Bi  Bi 0.45856 0.55016 0.63104 1.0000
  Bi  Bi 0.45856 0.55016 0.63104 1.0000
  Bi  Bi 0.45275 0.54725 0.00000 1.0000
  Bi  Bi 0.45275 0.54725 0.00000 1.0000
  Bi  Bi 0.45275 0.54725 0.00000 1.0000
  Bi  Bi 0.45275 0.54725 0.00000 1.0000
  Bi  Bi 0.49419 0.56797 0.36895 1.0000
  Bi  Bi 0.49419 0.56797 0.36895 1.0000
  Bi  Bi 0.48219 0.55016 0.63104 1.0000
  Bi  Bi 0.48219 0.55016 0.63104 1.0000
  Bi  Bi 0.47637 0.54725 0.00000 1.0000
  Bi  Bi 0.47637 0.54725 0.00000 1.0000
  Bi  Bi 0.47637 0.54725 0.00000 1.0000
  Bi  Bi 0.47637 0.54725 0.00000 1.0000
  Bi  Bi 0.51781 0.56797 0.36895 1.0000
  Bi  Bi 0.51781 0.56797 0.36895 1.0000
  Bi  Bi 0.50581 0.55016 0.63104 1.0000
  Bi  Bi 0.50581 0.55016 0.63104 1.0000
  Bi  Bi 0.50000 0.54725 0.00000 1.0000
  Bi  Bi 0.50000 0.54725 0.00000 1.0000
  Bi  Bi 0.50000 0.54725 0.00000 1.0000
  Bi  Bi 0.50000 0.54725 0.00000 1.0000
  Bi  Bi 0.54144 0.56797 0.36895 1.0000
  Bi  Bi 0.54144 0.56797 0.36895 1.0000
  Bi  Bi 0.52944 0.55016 0.63104 1.0000
  Bi  Bi 0.52944 0.55016 0.63104 1.0000
  Bi  Bi 0.52363 0.54725 0.00000 1.0000
  Bi  Bi 0.52363 0.54725 0.00000 1.0000
  Bi  Bi 0.52363 0.54725 0.00000 1.0000
  Bi  Bi 0.52363 0.54725 0.00000 1.0000
  Bi  Bi 0.56507 0.56797 0.36895 1.0000
  Bi  Bi 0.56507 0.56797 0.36895 1.0000
  Bi  Bi 0.55306 0.55016 0.63104 1.0000
  Bi  Bi 0.55306 0.55016 0.63104 1.0000
  Bi  Bi 0.54725 0.54725 0.00000 1.0000
  Bi  Bi 0.54725 0.54725 0.00000 1.0000
  Bi  Bi 0.54725 0.54725 0.00000 1.0000
  Bi  Bi 0.54725 0.54725 0.00000 1.0000
  Bi  Bi 0.58869 0.56797 0.36895 1.0000
  Bi  Bi 0.58869 0.56797 0.36895 1.0000
  Bi  Bi 0.57669 0.55016 0.63104 1.0000
  Bi  Bi 0.57669 0.55016 0.63104 1.0000
  Bi  Bi 0.57088 0.54725 0.00000 1.0000
  Bi  Bi 0.57088 0.54725 0.00000 1.0000
  Bi  Bi 0.57088 0.54725 0.00000 1.0000
  Bi  Bi 0.57088 0.54725 0.00000 1.0000
  Bi  Bi 0.61232 0.56797 0.36895 1.0000
  Bi  Bi 0.61232 0.56797 0.36895 1.0000
  Bi  Bi 0.60032 0.55016 0.63104 1.0000
  Bi  Bi 0.60032 0.55016 0.63104 1.0000
  Bi  Bi 0.59450 0.54725 0.00000 1.0000
  Bi  Bi 0.59450 0.54725 0.00000 1.0000
  Bi  Bi 0.59450 0.54725 0.00000 1.0000
  Bi  Bi 0.59450 0.54725 0.00000 1.0000
  Bi  Bi 0.63594 0.56797 0.36895 1.0000
  Bi  Bi 0.63594 0.56797 0.36895 1.0000
  Bi  Bi 0.62394 0.55016 0.63104 1.0000
  Bi  Bi 0.62394 0.55016 0.63104 1.0000
  Bi  Bi 0.61813 0.54725 0.00000 1.0000
  Bi  Bi 0.61813 0.54725 0.00000 1.0000
  Bi  Bi 0.61813 0.54725 0.00000 1.0000
  Bi  Bi 0.61813 0.54725 0.00000 1.0000
  Bi  Bi 0.65957 0.56797 0.36895 1.0000
  Bi  Bi 0.65957 0.56797 0.36895 1.0000
  Bi  Bi 0.64757 0.55016 0.63104 1.0000
  Bi  Bi 0.64757 0.55016 0.63104 1.0000
  Bi  Bi 0.64176 0.54725 0.00000 1.0000
  Bi  Bi 0.64176 0.54725 0.00000 1.0000
  Bi  Bi 0.64176 0.54725 0.00000 1.0000
  Bi  Bi 0.64176 0.54725 0.00000 1.0000
  Bi  Bi 0.68320 0.56797 0.36895 1.0000
  Bi  Bi 0.68320 0.56797 0.36895 1.0000
  Bi  Bi 0.67119 0.55016 0.63104 1.0000
  Bi  Bi 0.67119 0.55016 0.63104 1.0000
  Bi  Bi 0.66538 0.54725 0.00000 1.0000
  Bi  Bi 0.66538 0.54725 0.00000 1.0000
  Bi  Bi 0.66538 0.54725 0.00000 1.0000
  Bi  Bi 0.66538 0.54725 0.00000 1.0000
  Bi  Bi 0.70682 0.56797 0.36895 1.0000
  Bi  Bi 0.70682 0.56797 0.36895 1.0000
  Bi  Bi 0.69482 0.55016 0.63104 1.0000
  Bi  Bi 0.69482 0.55016 0.63104 1.0000
  Bi  Bi 0.68901 0.54725 0.00000 1.0000
  Bi  Bi 0.68901 0.54725 0.00000 1.0000
  Bi  Bi 0.68901 0.54725 0.00000 1.0000
  Bi  Bi 0.68901 0.54725 0.00000 1.0000
  Bi  Bi 0.73045 0.56797 0.36895 1.0000
  Bi  Bi 0.73045 0.56797 0.36895 1.0000
  Bi  Bi 0.71844 0.55016 0.63104 1.0000
  Bi  Bi 0.71844 0.55016 0.63104 1.0000
  Bi  Bi 0.71263 0.54725 0.00000 1.0000
  Bi  Bi 0.71263 0.54725 0.00000 1.0000
  Bi  Bi 0.71263 0.54725 0.00000 1.0000
  Bi  Bi 0.71263 0.54725 0.00000 1.0000
  Bi  Bi 0.75407 0.56797 0.36895 1.0000
  Bi  Bi 0.75407 0.56797 0.36895 1.0000
  Bi  Bi 0.74207 0.55016 0.63104 1.0000
  Bi  Bi 0.74207 0.55016 0.63104 1.0000
  Bi  Bi 0.73626 0.54725 0.00000 1.0000
  Bi  Bi 0.73626 0.54725 0.00000 1.0000
  Bi  Bi 0.73626 0.54725 0.00000 1.0000
  Bi  Bi 0.73626 0.54725 0.00000 1.0000
  Bi  Bi 0.77770 0.56797 0.36895 1.0000
  Bi  Bi 0.77770 0.56797 0.36895 1.0000
  Bi  Bi 0.76570 0.55016 0.63104 1.0000
  Bi  Bi 0.76570 0.55016 0.63104 1.0000
  Bi  Bi 0.75989 0.54725 0.00000 1.0000
  Bi  Bi 0.75989 0.54725 0.00000 1.0000
  Bi  Bi 0.75989 0.54725 0.00000 1.0000
  Bi  Bi 0.75989 0.54725 0.00000 1.0000
  Bi  Bi 0.80133 0.56797 0.36895 1.0000
  Bi  Bi 0.80133 0.56797 0.36895 1.0000
  Bi  Bi 0.78932 0.55016 0.63104 1.0000
  Bi  Bi 0.78932 0.55016 0.63104 1.0000
  Bi  Bi 0.78351 0.54725 0.00000 1.0000
  Bi  Bi 0.78351 0.54725 0.00000 1.0000
  Bi  Bi 0.78351 0.54725 0.00000 1.0000
  Bi  Bi 0.78351 0.54725 0.00000 1.0000
  Bi  Bi 0.82495 0.56797 0.36895 1.0000
  Bi  Bi 0.82495 0.56797 0.36895 1.0000
  Bi  Bi 0.81295 0.55016 0.63104 1.0000
  Bi  Bi 0.81295 0.55016 0.63104 1.0000
  Bi  Bi 0.80714 0.54725 0.00000 1.0000
  Bi  Bi 0.80714 0.54725 0.00000 1.0000
  Bi  Bi 0.80714 0.54725 0.00000 1.0000
  Bi  Bi 0.80714 0.54725 0.00000 1.0000
  Bi  Bi 0.84858 0.56797 0.36895 1.0000
  Bi  Bi 0.84858 0.56797 0.36895 1.0000
  Bi  Bi 0.83657 0.55016 0.63104 1.0000
  Bi  Bi 0.83657 0.55016 0.63104 1.0000
  Bi  Bi 0.83076 0.54725 0.00000 1.0000
  Bi  Bi 0.83076 0.54725 0.00000 1.0000
  Bi  Bi 0.83076 0.54725 0.00000 1.0000
  Bi  Bi 0.83076 0.54725 0.00000 1.0000
  Bi  Bi 0.87220 0.56797 0.36895 1.0000
  Bi  Bi 0.87220 0.56797 0.36895 1.0000
  Bi  Bi 0.86020 0.55016 0.63104 1.0000
  Bi  Bi 0.86020 0.55016 0.63104 1.0000
  Bi  Bi 0.85439 0.54725 0.00000 1.0000
  Bi  Bi 0.85439 0.54725 0.00000 1.0000
  Bi  Bi 0.85439 0.54725 0.00000 1.0000
  Bi  Bi 0.85439 0.54725 0.00000 1.0000
  Bi  Bi 0.89583 0.56797 0.36895 1.0000
  Bi  Bi 0.89583 0.56797 0.36895 1.0000
  Bi  Bi 0.88383 0.55016 0.63104 1.0000
  Bi  Bi 0.88383 0.55016 0.63104 1.0000
  Bi  Bi 0.87802 0.54725 0.00000 1.0000
  Bi  Bi 0.87802 0.54725 0.00000 1.0000
  Bi  Bi 0.87802 0.54725 0.00000 1.0000
  Bi  Bi 0.87802 0.54725 0.00000 1.0000
  Bi  Bi 0.91946 0.56797 0.36895 1.0000
  Bi  Bi 0.91946 0.56797 0.36895 1.0000
  Bi  Bi 0.90745 0.55016 0.63104 1.0000
  Bi  Bi 0.90745 0.55016 0.63104 1.0000
  Bi  Bi 0.90164 0.54725 0.00000 1.0000
  Bi  Bi 0.90164 0.54725 0.00000 1.0000
  Bi  Bi 0.90164 0.54725 0.00000 1.0000
  Bi  Bi 0.90164 0.54725 0.00000 1.0000
  Bi  Bi 0.94308 0.56797 0.36895 1.0000
  Bi  Bi 0.94308 0.56797 0.36895 1.0000
  Bi  Bi 0.93108 0.55016 0.63104 1.0000
  Bi  Bi 0.93108 0.55016 0.63104 1.0000
  Bi  Bi 0.92527 0.54725 0.00000 1.0000
  Bi  Bi 0.92527 0.54725 0.00000 1.0000
  Bi  Bi 0.92527 0.54725 0.00000 1.0000
  Bi  Bi 0.92527 0.54725 0.00000 1.0000
  Bi  Bi 0.96671 0.56797 0.36895 1.0000
  Bi  Bi 0.96671 0.56797 0.36895 1.0000
  Bi  Bi 0.95470 0.55016 0.63104 1.0000
  Bi  Bi 0.95470 0.55016 0.63104 1.0000
  Bi  Bi 0.94889 0.54725 0.00000 1.0000
  Bi  Bi 0.94889 0.54725 0.00000 1.0000
  Bi  Bi 0.94889 0.54725 0.00000 1.0000
  Bi  Bi 0.94889 0.54725 0.00000 1.0000
  Bi  Bi 0.04530 0.59160 0.36895 1.0000
  Bi  Bi 0.04530 0.59160 0.36895 1.0000
  Bi  Bi 0.03329 0.57378 0.63104 1.0000
  Bi  Bi 0.03329 0.57378 0.63104 1.0000
  Bi  Bi 0.02748 0.57088 0.00000 1.0000
  Bi  Bi 0.02748 0.57088 0.00000 1.0000
  Bi  Bi 0.02748 0.57088 0.00000 1.0000
  Bi  Bi 0.02748 0.57088 0.00000 1.0000
  Bi  Bi 0.06892 0.59160 0.36895 1.0000
  Bi  Bi 0.06892 0.59160 0.36895 1.0000
  Bi  Bi 0.05692 0.57378 0.63104 1.0000
  Bi  Bi 0.05692 0.57378 0.63104 1.0000
  Bi  Bi 0.05111 0.57088 0.00000 1.0000
  Bi  Bi 0.05111 0.57088 0.00000 1.0000
  Bi  Bi 0.05111 0.57088 0.00000 1.0000
  Bi  Bi 0.05111 0.57088 0.00000 1.0000
  Bi  Bi 0.09255 0.59160 0.36895 1.0000
  Bi  Bi 0.09255 0.59160 0.36895 1.0000
  Bi  Bi 0.08054 0.57378 0.63104 1.0000
  Bi  Bi 0.08054 0.57378 0.63104 1.0000
  Bi  Bi 0.07473 0.57088 0.00000 1.0000
  Bi  Bi 0.07473 0.57088 0.00000 1.0000
  Bi  Bi 0.07473 0.57088 0.00000 1.0000
  Bi  Bi 0.07473 0.57088 0.00000 1.0000
  Bi  Bi 0.11617 0.59160 0.36895 1.0000
  Bi  Bi 0.11617 0.59160 0.36895 1.0000
  Bi  Bi 0.10417 0.57378 0.63104 1.0000
  Bi  Bi 0.10417 0.57378 0.63104 1.0000
  Bi  Bi 0.09836 0.57088 0.00000 1.0000
  Bi  Bi 0.09836 0.57088 0.00000 1.0000
  Bi  Bi 0.09836 0.57088 0.00000 1.0000
  Bi  Bi 0.09836 0.57088 0.00000 1.0000
  Bi  Bi 0.13980 0.59160 0.36895 1.0000
  Bi  Bi 0.13980 0.59160 0.36895 1.0000
  Bi  Bi 0.12780 0.57378 0.63104 1.0000
  Bi  Bi 0.12780 0.57378 0.63104 1.0000
  Bi  Bi 0.12198 0.57088 0.00000 1.0000
  Bi  Bi 0.12198 0.57088 0.00000 1.0000
  Bi  Bi 0.12198 0.57088 0.00000 1.0000
  Bi  Bi 0.12198 0.57088 0.00000 1.0000
  Bi  Bi 0.16343 0.59160 0.36895 1.0000
  Bi  Bi 0.16343 0.59160 0.36895 1.0000
  Bi  Bi 0.15142 0.57378 0.63104 1.0000
  Bi  Bi 0.15142 0.57378 0.63104 1.0000
  Bi  Bi 0.14561 0.57088 0.00000 1.0000
  Bi  Bi 0.14561 0.57088 0.00000 1.0000
  Bi  Bi 0.14561 0.57088 0.00000 1.0000
  Bi  Bi 0.14561 0.57088 0.00000 1.0000
  Bi  Bi 0.18705 0.59160 0.36895 1.0000
  Bi  Bi 0.18705 0.59160 0.36895 1.0000
  Bi  Bi 0.17505 0.57378 0.63104 1.0000
  Bi  Bi 0.17505 0.57378 0.63104 1.0000
  Bi  Bi 0.16924 0.57088 0.00000 1.0000
  Bi  Bi 0.16924 0.57088 0.00000 1.0000
  Bi  Bi 0.16924 0.57088 0.00000 1.0000
  Bi  Bi 0.16924 0.57088 0.00000 1.0000
  Bi  Bi 0.21068 0.59160 0.36895 1.0000
  Bi  Bi 0.21068 0.59160 0.36895 1.0000
  Bi  Bi 0.19867 0.57378 0.63104 1.0000
  Bi  Bi 0.19867 0.57378 0.63104 1.0000
  Bi  Bi 0.19286 0.57088 0.00000 1.0000
  Bi  Bi 0.19286 0.57088 0.00000 1.0000
  Bi  Bi 0.19286 0.57088 0.00000 1.0000
  Bi  Bi 0.19286 0.57088 0.00000 1.0000
  Bi  Bi 0.23430 0.59160 0.36895 1.0000
  Bi  Bi 0.23430 0.59160 0.36895 1.0000
  Bi  Bi 0.22230 0.57378 0.63104 1.0000
  Bi  Bi 0.22230 0.57378 0.63104 1.0000
  Bi  Bi 0.21649 0.57088 0.00000 1.0000
  Bi  Bi 0.21649 0.57088 0.00000 1.0000
  Bi  Bi 0.21649 0.57088 0.00000 1.0000
  Bi  Bi 0.21649 0.57088 0.00000 1.0000
  Bi  Bi 0.25793 0.59160 0.36895 1.0000
  Bi  Bi 0.25793 0.59160 0.36895 1.0000
  Bi  Bi 0.24593 0.57378 0.63104 1.0000
  Bi  Bi 0.24593 0.57378 0.63104 1.0000
  Bi  Bi 0.24011 0.57088 0.00000 1.0000
  Bi  Bi 0.24011 0.57088 0.00000 1.0000
  Bi  Bi 0.24011 0.57088 0.00000 1.0000
  Bi  Bi 0.24011 0.57088 0.00000 1.0000
  Bi  Bi 0.28156 0.59160 0.36895 1.0000
  Bi  Bi 0.28156 0.59160 0.36895 1.0000
  Bi  Bi 0.26955 0.57378 0.63104 1.0000
  Bi  Bi 0.26955 0.57378 0.63104 1.0000
  Bi  Bi 0.26374 0.57088 0.00000 1.0000
  Bi  Bi 0.26374 0.57088 0.00000 1.0000
  Bi  Bi 0.26374 0.57088 0.00000 1.0000
  Bi  Bi 0.26374 0.57088 0.00000 1.0000
  Bi  Bi 0.30518 0.59160 0.36895 1.0000
  Bi  Bi 0.30518 0.59160 0.36895 1.0000
  Bi  Bi 0.29318 0.57378 0.63104 1.0000
  Bi  Bi 0.29318 0.57378 0.63104 1.0000
  Bi  Bi 0.28737 0.57088 0.00000 1.0000
  Bi  Bi 0.28737 0.57088 0.00000 1.0000
  Bi  Bi 0.28737 0.57088 0.00000 1.0000
  Bi  Bi 0.28737 0.57088 0.00000 1.0000
  Bi  Bi 0.32881 0.59160 0.36895 1.0000
  Bi  Bi 0.32881 0.59160 0.36895 1.0000
  Bi  Bi 0.31680 0.57378 0.63104 1.0000
  Bi  Bi 0.31680 0.57378 0.63104 1.0000
  Bi  Bi 0.31099 0.57088 0.00000 1.0000
  Bi  Bi 0.31099 0.57088 0.00000 1.0000
  Bi  Bi 0.31099 0.57088 0.00000 1.0000
  Bi  Bi 0.31099 0.57088 0.00000 1.0000
  Bi  Bi 0.35243 0.59160 0.36895 1.0000
  Bi  Bi 0.35243 0.59160 0.36895 1.0000
  Bi  Bi 0.34043 0.57378 0.63104 1.0000
  Bi  Bi 0.34043 0.57378 0.63104 1.0000
  Bi  Bi 0.33462 0.57088 0.00000 1.0000
  Bi  Bi 0.33462 0.57088 0.00000 1.0000
  Bi  Bi 0.33462 0.57088 0.00000 1.0000
  Bi  Bi 0.33462 0.57088 0.00000 1.0000
  Bi  Bi 0.37606 0.59160 0.36895 1.0000
  Bi  Bi 0.37606 0.59160 0.36895 1.0000
  Bi  Bi 0.36406 0.57378 0.63104 1.0000
  Bi  Bi 0.36406 0.57378 0.63104 1.0000
  Bi  Bi 0.35824 0.57088 0.00000 1.0000
  Bi  Bi 0.35824 0.57088 0.00000 1.0000
  Bi  Bi 0.35824 0.57088 0.00000 1.0000
  Bi  Bi 0.35824 0.57088 0.00000 1.0000
  Bi  Bi 0.39968 0.59160 0.36895 1.0000
  Bi  Bi 0.39968 0.59160 0.36895 1.0000
  Bi  Bi 0.38768 0.57378 0.63104 1.0000
  Bi  Bi 0.38768 0.57378 0.63104 1.0000
  Bi  Bi 0.38187 0.57088 0.00000 1.0000
  Bi  Bi 0.38187 0.57088 0.00000 1.0000
  Bi  Bi 0.38187 0.57088 0.00000 1.0000
  Bi  Bi 0.38187 0.57088 0.00000 1.0000
  Bi  Bi 0.42331 0.59160 0.36895 1.0000
  Bi  Bi 0.42331 0.59160 0.36895 1.0000
  Bi  Bi 0.41131 0.57378 0.63104 1.0000
  Bi  Bi 0.41131 0.57378 0.63104 1.0000
  Bi  Bi 0.40550 0.57088 0.00000 1.0000
  Bi  Bi 0.40550 0.57088 0.00000 1.0000
  Bi  Bi 0.40550 0.57088 0.00000 1.0000
  Bi  Bi 0.40550 0.57088 0.00000 1.0000
  Bi  Bi 0.44694 0.59160 0.36895 1.0000
  Bi  Bi 0.44694 0.59160 0.36895 1.0000
  Bi  Bi 0.43493 0.57378 0.63104 1.0000
  Bi  Bi 0.43493 0.57378 0.63104 1.0000
  Bi  Bi 0.42912 0.57088 0.00000 1.0000
  Bi  Bi 0.42912 0.57088 0.00000 1.0000
  Bi  Bi 0.42912 0.57088 0.00000 1.0000
  Bi  Bi 0.42912 0.57088 0.00000 1.0000
  Bi  Bi 0.47056 0.59160 0.36895 1.0000
  Bi  Bi 0.47056 0.59160 0.36895 1.0000
  Bi  Bi 0.45856 0.57378 0.63104 1.0000
  Bi  Bi 0.45856 0.57378 0.63104 1.0000
  Bi  Bi 0.45275 0.57088 0.00000 1.0000
  Bi  Bi 0.45275 0.57088 0.00000 1.0000
  Bi  Bi 0.45275 0.57088 0.00000 1.0000
  Bi  Bi 0.45275 0.57088 0.00000 1.0000
  Bi  Bi 0.49419 0.59160 0.36895 1.0000
  Bi  Bi 0.49419 0.59160 0.36895 1.0000
  Bi  Bi 0.48219 0.57378 0.63104 1.0000
  Bi  Bi 0.48219 0.57378 0.63104 1.0000
  Bi  Bi 0.47637 0.57088 0.00000 1.0000
  Bi  Bi 0.47637 0.57088 0.00000 1.0000
  Bi  Bi 0.47637 0.57088 0.00000 1.0000
  Bi  Bi 0.47637 0.57088 0.00000 1.0000
  Bi  Bi 0.51781 0.59160 0.36895 1.0000
  Bi  Bi 0.51781 0.59160 0.36895 1.0000
  Bi  Bi 0.50581 0.57378 0.63104 1.0000
  Bi  Bi 0.50581 0.57378 0.63104 1.0000
  Bi  Bi 0.50000 0.57088 0.00000 1.0000
  Bi  Bi 0.50000 0.57088 0.00000 1.0000
  Bi  Bi 0.50000 0.57088 0.00000 1.0000
  Bi  Bi 0.50000 0.57088 0.00000 1.0000
  Bi  Bi 0.54144 0.59160 0.36895 1.0000
  Bi  Bi 0.54144 0.59160 0.36895 1.0000
  Bi  Bi 0.52944 0.57378 0.63104 1.0000
  Bi  Bi 0.52944 0.57378 0.63104 1.0000
  Bi  Bi 0.52363 0.57088 0.00000 1.0000
  Bi  Bi 0.52363 0.57088 0.00000 1.0000
  Bi  Bi 0.52363 0.57088 0.00000 1.0000
  Bi  Bi 0.52363 0.57088 0.00000 1.0000
  Bi  Bi 0.56507 0.59160 0.36895 1.0000
  Bi  Bi 0.56507 0.59160 0.36895 1.0000
  Bi  Bi 0.55306 0.57378 0.63104 1.0000
  Bi  Bi 0.55306 0.57378 0.63104 1.0000
  Bi  Bi 0.54725 0.57088 0.00000 1.0000
  Bi  Bi 0.54725 0.57088 0.00000 1.0000
  Bi  Bi 0.54725 0.57088 0.00000 1.0000
  Bi  Bi 0.54725 0.57088 0.00000 1.0000
  Bi  Bi 0.58869 0.59160 0.36895 1.0000
  Bi  Bi 0.58869 0.59160 0.36895 1.0000
  Bi  Bi 0.57669 0.57378 0.63104 1.0000
  Bi  Bi 0.57669 0.57378 0.63104 1.0000
  Bi  Bi 0.57088 0.57088 0.00000 1.0000
  Bi  Bi 0.57088 0.57088 0.00000 1.0000
  Bi  Bi 0.57088 0.57088 0.00000 1.0000
  Bi  Bi 0.57088 0.57088 0.00000 1.0000
  Bi  Bi 0.61232 0.59160 0.36895 1.0000
  Bi  Bi 0.61232 0.59160 0.36895 1.0000
  Bi  Bi 0.60032 0.57378 0.63104 1.0000
  Bi  Bi 0.60032 0.57378 0.63104 1.0000
  Bi  Bi 0.59450 0.57088 0.00000 1.0000
  Bi  Bi 0.59450 0.57088 0.00000 1.0000
  Bi  Bi 0.59450 0.57088 0.00000 1.0000
  Bi  Bi 0.59450 0.57088 0.00000 1.0000
  Bi  Bi 0.63594 0.59160 0.36895 1.0000
  Bi  Bi 0.63594 0.59160 0.36895 1.0000
  Bi  Bi 0.62394 0.57378 0.63104 1.0000
  Bi  Bi 0.62394 0.57378 0.63104 1.0000
  Bi  Bi 0.61813 0.57088 0.00000 1.0000
  Bi  Bi 0.61813 0.57088 0.00000 1.0000
  Bi  Bi 0.61813 0.57088 0.00000 1.0000
  Bi  Bi 0.61813 0.57088 0.00000 1.0000
  Bi  Bi 0.65957 0.59160 0.36895 1.0000
  Bi  Bi 0.65957 0.59160 0.36895 1.0000
  Bi  Bi 0.64757 0.57378 0.63104 1.0000
  Bi  Bi 0.64757 0.57378 0.63104 1.0000
  Bi  Bi 0.64176 0.57088 0.00000 1.0000
  Bi  Bi 0.64176 0.57088 0.00000 1.0000
  Bi  Bi 0.64176 0.57088 0.00000 1.0000
  Bi  Bi 0.64176 0.57088 0.00000 1.0000
  Bi  Bi 0.68320 0.59160 0.36895 1.0000
  Bi  Bi 0.68320 0.59160 0.36895 1.0000
  Bi  Bi 0.67119 0.57378 0.63104 1.0000
  Bi  Bi 0.67119 0.57378 0.63104 1.0000
  Bi  Bi 0.66538 0.57088 0.00000 1.0000
  Bi  Bi 0.66538 0.57088 0.00000 1.0000
  Bi  Bi 0.66538 0.57088 0.00000 1.0000
  Bi  Bi 0.66538 0.57088 0.00000 1.0000
  Bi  Bi 0.70682 0.59160 0.36895 1.0000
  Bi  Bi 0.70682 0.59160 0.36895 1.0000
  Bi  Bi 0.69482 0.57378 0.63104 1.0000
  Bi  Bi 0.69482 0.57378 0.63104 1.0000
  Bi  Bi 0.68901 0.57088 0.00000 1.0000
  Bi  Bi 0.68901 0.57088 0.00000 1.0000
  Bi  Bi 0.68901 0.57088 0.00000 1.0000
  Bi  Bi 0.68901 0.57088 0.00000 1.0000
  Bi  Bi 0.73045 0.59160 0.36895 1.0000
  Bi  Bi 0.73045 0.59160 0.36895 1.0000
  Bi  Bi 0.71844 0.57378 0.63104 1.0000
  Bi  Bi 0.71844 0.57378 0.63104 1.0000
  Bi  Bi 0.71263 0.57088 0.00000 1.0000
  Bi  Bi 0.71263 0.57088 0.00000 1.0000
  Bi  Bi 0.71263 0.57088 0.00000 1.0000
  Bi  Bi 0.71263 0.57088 0.00000 1.0000
  Bi  Bi 0.75407 0.59160 0.36895 1.0000
  Bi  Bi 0.75407 0.59160 0.36895 1.0000
  Bi  Bi 0.74207 0.57378 0.63104 1.0000
  Bi  Bi 0.74207 0.57378 0.63104 1.0000
  Bi  Bi 0.73626 0.57088 0.00000 1.0000
  Bi  Bi 0.73626 0.57088 0.00000 1.0000
  Bi  Bi 0.73626 0.57088 0.00000 1.0000
  Bi  Bi 0.73626 0.57088 0.00000 1.0000
  Bi  Bi 0.77770 0.59160 0.36895 1.0000
  Bi  Bi 0.77770 0.59160 0.36895 1.0000
  Bi  Bi 0.76570 0.57378 0.63104 1.0000
  Bi  Bi 0.76570 0.57378 0.63104 1.0000
  Bi  Bi 0.75989 0.57088 0.00000 1.0000
  Bi  Bi 0.75989 0.57088 0.00000 1.0000
  Bi  Bi 0.75989 0.57088 0.00000 1.0000
  Bi  Bi 0.75989 0.57088 0.00000 1.0000
  Bi  Bi 0.80133 0.59160 0.36895 1.0000
  Bi  Bi 0.80133 0.59160 0.36895 1.0000
  Bi  Bi 0.78932 0.57378 0.63104 1.0000
  Bi  Bi 0.78932 0.57378 0.63104 1.0000
  Bi  Bi 0.78351 0.57088 0.00000 1.0000
  Bi  Bi 0.78351 0.57088 0.00000 1.0000
  Bi  Bi 0.78351 0.57088 0.00000 1.0000
  Bi  Bi 0.78351 0.57088 0.00000 1.0000
  Bi  Bi 0.82495 0.59160 0.36895 1.0000
  Bi  Bi 0.82495 0.59160 0.36895 1.0000
  Bi  Bi 0.81295 0.57378 0.63104 1.0000
  Bi  Bi 0.81295 0.57378 0.63104 1.0000
  Bi  Bi 0.80714 0.57088 0.00000 1.0000
  Bi  Bi 0.80714 0.57088 0.00000 1.0000
  Bi  Bi 0.80714 0.57088 0.00000 1.0000
  Bi  Bi 0.80714 0.57088 0.00000 1.0000
  Bi  Bi 0.84858 0.59160 0.36895 1.0000
  Bi  Bi 0.84858 0.59160 0.36895 1.0000
  Bi  Bi 0.83657 0.57378 0.63104 1.0000
  Bi  Bi 0.83657 0.57378 0.63104 1.0000
  Bi  Bi 0.83076 0.57088 0.00000 1.0000
  Bi  Bi 0.83076 0.57088 0.00000 1.0000
  Bi  Bi 0.83076 0.57088 0.00000 1.0000
  Bi  Bi 0.83076 0.57088 0.00000 1.0000
  Bi  Bi 0.87220 0.59160 0.36895 1.0000
  Bi  Bi 0.87220 0.59160 0.36895 1.0000
  Bi  Bi 0.86020 0.57378 0.63104 1.0000
  Bi  Bi 0.86020 0.57378 0.63104 1.0000
  Bi  Bi 0.85439 0.57088 0.00000 1.0000
  Bi  Bi 0.85439 0.57088 0.00000 1.0000
  Bi  Bi 0.85439 0.57088 0.00000 1.0000
  Bi  Bi 0.85439 0.57088 0.00000 1.0000
  Bi  Bi 0.89583 0.59160 0.36895 1.0000
  Bi  Bi 0.89583 0.59160 0.36895 1.0000
  Bi  Bi 0.88383 0.57378 0.63104 1.0000
  Bi  Bi 0.88383 0.57378 0.63104 1.0000
  Bi  Bi 0.87802 0.57088 0.00000 1.0000
  Bi  Bi 0.87802 0.57088 0.00000 1.0000
  Bi  Bi 0.87802 0.57088 0.00000 1.0000
  Bi  Bi 0.87802 0.57088 0.00000 1.0000
  Bi  Bi 0.91946 0.59160 0.36895 1.0000
  Bi  Bi 0.91946 0.59160 0.36895 1.0000
  Bi  Bi 0.90745 0.57378 0.63104 1.0000
  Bi  Bi 0.90745 0.57378 0.63104 1.0000
  Bi  Bi 0.90164 0.57088 0.00000 1.0000
  Bi  Bi 0.90164 0.57088 0.00000 1.0000
  Bi  Bi 0.90164 0.57088 0.00000 1.0000
  Bi  Bi 0.90164 0.57088 0.00000 1.0000
  Bi  Bi 0.94308 0.59160 0.36895 1.0000
  Bi  Bi 0.94308 0.59160 0.36895 1.0000
  Bi  Bi 0.93108 0.57378 0.63104 1.0000
  Bi  Bi 0.93108 0.57378 0.63104 1.0000
  Bi  Bi 0.92527 0.57088 0.00000 1.0000
  Bi  Bi 0.92527 0.57088 0.00000 1.0000
  Bi  Bi 0.92527 0.57088 0.00000 1.0000
  Bi  Bi 0.92527 0.57088 0.00000 1.0000
  Bi  Bi 0.96671 0.59160 0.36895 1.0000
  Bi  Bi 0.96671 0.59160 0.36895 1.0000
  Bi  Bi 0.95470 0.57378 0.63104 1.0000
  Bi  Bi 0.95470 0.57378 0.63104 1.0000
  Bi  Bi 0.94889 0.57088 0.00000 1.0000
  Bi  Bi 0.94889 0.57088 0.00000 1.0000
  Bi  Bi 0.94889 0.57088 0.00000 1.0000
  Bi  Bi 0.94889 0.57088 0.00000 1.0000
  Bi  Bi 0.04530 0.61522 0.36895 1.0000
  Bi  Bi 0.04530 0.61522 0.36895 1.0000
  Bi  Bi 0.03329 0.59741 0.63104 1.0000
  Bi  Bi 0.03329 0.59741 0.63104 1.0000
  Bi  Bi 0.02748 0.59450 0.00000 1.0000
  Bi  Bi 0.02748 0.59450 0.00000 1.0000
  Bi  Bi 0.02748 0.59450 0.00000 1.0000
  Bi  Bi 0.02748 0.59450 0.00000 1.0000
  Bi  Bi 0.06892 0.61522 0.36895 1.0000
  Bi  Bi 0.06892 0.61522 0.36895 1.0000
  Bi  Bi 0.05692 0.59741 0.63104 1.0000
  Bi  Bi 0.05692 0.59741 0.63104 1.0000
  Bi  Bi 0.05111 0.59450 0.00000 1.0000
  Bi  Bi 0.05111 0.59450 0.00000 1.0000
  Bi  Bi 0.05111 0.59450 0.00000 1.0000
  Bi  Bi 0.05111 0.59450 0.00000 1.0000
  Bi  Bi 0.09255 0.61522 0.36895 1.0000
  Bi  Bi 0.09255 0.61522 0.36895 1.0000
  Bi  Bi 0.08054 0.59741 0.63104 1.0000
  Bi  Bi 0.08054 0.59741 0.63104 1.0000
  Bi  Bi 0.07473 0.59450 0.00000 1.0000
  Bi  Bi 0.07473 0.59450 0.00000 1.0000
  Bi  Bi 0.07473 0.59450 0.00000 1.0000
  Bi  Bi 0.07473 0.59450 0.00000 1.0000
  Bi  Bi 0.11617 0.61522 0.36895 1.0000
  Bi  Bi 0.11617 0.61522 0.36895 1.0000
  Bi  Bi 0.10417 0.59741 0.63104 1.0000
  Bi  Bi 0.10417 0.59741 0.63104 1.0000
  Bi  Bi 0.09836 0.59450 0.00000 1.0000
  Bi  Bi 0.09836 0.59450 0.00000 1.0000
  Bi  Bi 0.09836 0.59450 0.00000 1.0000
  Bi  Bi 0.09836 0.59450 0.00000 1.0000
  Bi  Bi 0.13980 0.61522 0.36895 1.0000
  Bi  Bi 0.13980 0.61522 0.36895 1.0000
  Bi  Bi 0.12780 0.59741 0.63104 1.0000
  Bi  Bi 0.12780 0.59741 0.63104 1.0000
  Bi  Bi 0.12198 0.59450 0.00000 1.0000
  Bi  Bi 0.12198 0.59450 0.00000 1.0000
  Bi  Bi 0.12198 0.59450 0.00000 1.0000
  Bi  Bi 0.12198 0.59450 0.00000 1.0000
  Bi  Bi 0.16343 0.61522 0.36895 1.0000
  Bi  Bi 0.16343 0.61522 0.36895 1.0000
  Bi  Bi 0.15142 0.59741 0.63104 1.0000
  Bi  Bi 0.15142 0.59741 0.63104 1.0000
  Bi  Bi 0.14561 0.59450 0.00000 1.0000
  Bi  Bi 0.14561 0.59450 0.00000 1.0000
  Bi  Bi 0.14561 0.59450 0.00000 1.0000
  Bi  Bi 0.14561 0.59450 0.00000 1.0000
  Bi  Bi 0.18705 0.61522 0.36895 1.0000
  Bi  Bi 0.18705 0.61522 0.36895 1.0000
  Bi  Bi 0.17505 0.59741 0.63104 1.0000
  Bi  Bi 0.17505 0.59741 0.63104 1.0000
  Bi  Bi 0.16924 0.59450 0.00000 1.0000
  Bi  Bi 0.16924 0.59450 0.00000 1.0000
  Bi  Bi 0.16924 0.59450 0.00000 1.0000
  Bi  Bi 0.16924 0.59450 0.00000 1.0000
  Bi  Bi 0.21068 0.61522 0.36895 1.0000
  Bi  Bi 0.21068 0.61522 0.36895 1.0000
  Bi  Bi 0.19867 0.59741 0.63104 1.0000
  Bi  Bi 0.19867 0.59741 0.63104 1.0000
  Bi  Bi 0.19286 0.59450 0.00000 1.0000
  Bi  Bi 0.19286 0.59450 0.00000 1.0000
  Bi  Bi 0.19286 0.59450 0.00000 1.0000
  Bi  Bi 0.19286 0.59450 0.00000 1.0000
  Bi  Bi 0.23430 0.61522 0.36895 1.0000
  Bi  Bi 0.23430 0.61522 0.36895 1.0000
  Bi  Bi 0.22230 0.59741 0.63104 1.0000
  Bi  Bi 0.22230 0.59741 0.63104 1.0000
  Bi  Bi 0.21649 0.59450 0.00000 1.0000
  Bi  Bi 0.21649 0.59450 0.00000 1.0000
  Bi  Bi 0.21649 0.59450 0.00000 1.0000
  Bi  Bi 0.21649 0.59450 0.00000 1.0000
  Bi  Bi 0.25793 0.61522 0.36895 1.0000
  Bi  Bi 0.25793 0.61522 0.36895 1.0000
  Bi  Bi 0.24593 0.59741 0.63104 1.0000
  Bi  Bi 0.24593 0.59741 0.63104 1.0000
  Bi  Bi 0.24011 0.59450 0.00000 1.0000
  Bi  Bi 0.24011 0.59450 0.00000 1.0000
  Bi  Bi 0.24011 0.59450 0.00000 1.0000
  Bi  Bi 0.24011 0.59450 0.00000 1.0000
  Bi  Bi 0.28156 0.61522 0.36895 1.0000
  Bi  Bi 0.28156 0.61522 0.36895 1.0000
  Bi  Bi 0.26955 0.59741 0.63104 1.0000
  Bi  Bi 0.26955 0.59741 0.63104 1.0000
  Bi  Bi 0.26374 0.59450 0.00000 1.0000
  Bi  Bi 0.26374 0.59450 0.00000 1.0000
  Bi  Bi 0.26374 0.59450 0.00000 1.0000
  Bi  Bi 0.26374 0.59450 0.00000 1.0000
  Bi  Bi 0.30518 0.61522 0.36895 1.0000
  Bi  Bi 0.30518 0.61522 0.36895 1.0000
  Bi  Bi 0.29318 0.59741 0.63104 1.0000
  Bi  Bi 0.29318 0.59741 0.63104 1.0000
  Bi  Bi 0.28737 0.59450 0.00000 1.0000
  Bi  Bi 0.28737 0.59450 0.00000 1.0000
  Bi  Bi 0.28737 0.59450 0.00000 1.0000
  Bi  Bi 0.28737 0.59450 0.00000 1.0000
  Bi  Bi 0.32881 0.61522 0.36895 1.0000
  Bi  Bi 0.32881 0.61522 0.36895 1.0000
  Bi  Bi 0.31680 0.59741 0.63104 1.0000
  Bi  Bi 0.31680 0.59741 0.63104 1.0000
  Bi  Bi 0.31099 0.59450 0.00000 1.0000
  Bi  Bi 0.31099 0.59450 0.00000 1.0000
  Bi  Bi 0.31099 0.59450 0.00000 1.0000
  Bi  Bi 0.31099 0.59450 0.00000 1.0000
  Bi  Bi 0.35243 0.61522 0.36895 1.0000
  Bi  Bi 0.35243 0.61522 0.36895 1.0000
  Bi  Bi 0.34043 0.59741 0.63104 1.0000
  Bi  Bi 0.34043 0.59741 0.63104 1.0000
  Bi  Bi 0.33462 0.59450 0.00000 1.0000
  Bi  Bi 0.33462 0.59450 0.00000 1.0000
  Bi  Bi 0.33462 0.59450 0.00000 1.0000
  Bi  Bi 0.33462 0.59450 0.00000 1.0000
  Bi  Bi 0.37606 0.61522 0.36895 1.0000
  Bi  Bi 0.37606 0.61522 0.36895 1.0000
  Bi  Bi 0.36406 0.59741 0.63104 1.0000
  Bi  Bi 0.36406 0.59741 0.63104 1.0000
  Bi  Bi 0.35824 0.59450 0.00000 1.0000
  Bi  Bi 0.35824 0.59450 0.00000 1.0000
  Bi  Bi 0.35824 0.59450 0.00000 1.0000
  Bi  Bi 0.35824 0.59450 0.00000 1.0000
  Bi  Bi 0.39968 0.61522 0.36895 1.0000
  Bi  Bi 0.39968 0.61522 0.36895 1.0000
  Bi  Bi 0.38768 0.59741 0.63104 1.0000
  Bi  Bi 0.38768 0.59741 0.63104 1.0000
  Bi  Bi 0.38187 0.59450 0.00000 1.0000
  Bi  Bi 0.38187 0.59450 0.00000 1.0000
  Bi  Bi 0.38187 0.59450 0.00000 1.0000
  Bi  Bi 0.38187 0.59450 0.00000 1.0000
  Bi  Bi 0.42331 0.61522 0.36895 1.0000
  Bi  Bi 0.42331 0.61522 0.36895 1.0000
  Bi  Bi 0.41131 0.59741 0.63104 1.0000
  Bi  Bi 0.41131 0.59741 0.63104 1.0000
  Bi  Bi 0.40550 0.59450 0.00000 1.0000
  Bi  Bi 0.40550 0.59450 0.00000 1.0000
  Bi  Bi 0.40550 0.59450 0.00000 1.0000
  Bi  Bi 0.40550 0.59450 0.00000 1.0000
  Bi  Bi 0.44694 0.61522 0.36895 1.0000
  Bi  Bi 0.44694 0.61522 0.36895 1.0000
  Bi  Bi 0.43493 0.59741 0.63104 1.0000
  Bi  Bi 0.43493 0.59741 0.63104 1.0000
  Bi  Bi 0.42912 0.59450 0.00000 1.0000
  Bi  Bi 0.42912 0.59450 0.00000 1.0000
  Bi  Bi 0.42912 0.59450 0.00000 1.0000
  Bi  Bi 0.42912 0.59450 0.00000 1.0000
  Bi  Bi 0.47056 0.61522 0.36895 1.0000
  Bi  Bi 0.47056 0.61522 0.36895 1.0000
  Bi  Bi 0.45856 0.59741 0.63104 1.0000
  Bi  Bi 0.45856 0.59741 0.63104 1.0000
  Bi  Bi 0.45275 0.59450 0.00000 1.0000
  Bi  Bi 0.45275 0.59450 0.00000 1.0000
  Bi  Bi 0.45275 0.59450 0.00000 1.0000
  Bi  Bi 0.45275 0.59450 0.00000 1.0000
  Bi  Bi 0.49419 0.61522 0.36895 1.0000
  Bi  Bi 0.49419 0.61522 0.36895 1.0000
  Bi  Bi 0.48219 0.59741 0.63104 1.0000
  Bi  Bi 0.48219 0.59741 0.63104 1.0000
  Bi  Bi 0.47637 0.59450 0.00000 1.0000
  Bi  Bi 0.47637 0.59450 0.00000 1.0000
  Bi  Bi 0.47637 0.59450 0.00000 1.0000
  Bi  Bi 0.47637 0.59450 0.00000 1.0000
  Bi  Bi 0.51781 0.61522 0.36895 1.0000
  Bi  Bi 0.51781 0.61522 0.36895 1.0000
  Bi  Bi 0.50581 0.59741 0.63104 1.0000
  Bi  Bi 0.50581 0.59741 0.63104 1.0000
  Bi  Bi 0.50000 0.59450 0.00000 1.0000
  Bi  Bi 0.50000 0.59450 0.00000 1.0000
  Bi  Bi 0.50000 0.59450 0.00000 1.0000
  Bi  Bi 0.50000 0.59450 0.00000 1.0000
  Bi  Bi 0.54144 0.61522 0.36895 1.0000
  Bi  Bi 0.54144 0.61522 0.36895 1.0000
  Bi  Bi 0.52944 0.59741 0.63104 1.0000
  Bi  Bi 0.52944 0.59741 0.63104 1.0000
  Bi  Bi 0.52363 0.59450 0.00000 1.0000
  Bi  Bi 0.52363 0.59450 0.00000 1.0000
  Bi  Bi 0.52363 0.59450 0.00000 1.0000
  Bi  Bi 0.52363 0.59450 0.00000 1.0000
  Bi  Bi 0.56507 0.61522 0.36895 1.0000
  Bi  Bi 0.56507 0.61522 0.36895 1.0000
  Bi  Bi 0.55306 0.59741 0.63104 1.0000
  Bi  Bi 0.55306 0.59741 0.63104 1.0000
  Bi  Bi 0.54725 0.59450 0.00000 1.0000
  Bi  Bi 0.54725 0.59450 0.00000 1.0000
  Bi  Bi 0.54725 0.59450 0.00000 1.0000
  Bi  Bi 0.54725 0.59450 0.00000 1.0000
  Bi  Bi 0.58869 0.61522 0.36895 1.0000
  Bi  Bi 0.58869 0.61522 0.36895 1.0000
  Bi  Bi 0.57669 0.59741 0.63104 1.0000
  Bi  Bi 0.57669 0.59741 0.63104 1.0000
  Bi  Bi 0.57088 0.59450 0.00000 1.0000
  Bi  Bi 0.57088 0.59450 0.00000 1.0000
  Bi  Bi 0.57088 0.59450 0.00000 1.0000
  Bi  Bi 0.57088 0.59450 0.00000 1.0000
  Bi  Bi 0.61232 0.61522 0.36895 1.0000
  Bi  Bi 0.61232 0.61522 0.36895 1.0000
  Bi  Bi 0.60032 0.59741 0.63104 1.0000
  Bi  Bi 0.60032 0.59741 0.63104 1.0000
  Bi  Bi 0.59450 0.59450 0.00000 1.0000
  Bi  Bi 0.59450 0.59450 0.00000 1.0000
  Bi  Bi 0.59450 0.59450 0.00000 1.0000
  Bi  Bi 0.59450 0.59450 0.00000 1.0000
  Bi  Bi 0.63594 0.61522 0.36895 1.0000
  Bi  Bi 0.63594 0.61522 0.36895 1.0000
  Bi  Bi 0.62394 0.59741 0.63104 1.0000
  Bi  Bi 0.62394 0.59741 0.63104 1.0000
  Bi  Bi 0.61813 0.59450 0.00000 1.0000
  Bi  Bi 0.61813 0.59450 0.00000 1.0000
  Bi  Bi 0.61813 0.59450 0.00000 1.0000
  Bi  Bi 0.61813 0.59450 0.00000 1.0000
  Bi  Bi 0.65957 0.61522 0.36895 1.0000
  Bi  Bi 0.65957 0.61522 0.36895 1.0000
  Bi  Bi 0.64757 0.59741 0.63104 1.0000
  Bi  Bi 0.64757 0.59741 0.63104 1.0000
  Bi  Bi 0.64176 0.59450 0.00000 1.0000
  Bi  Bi 0.64176 0.59450 0.00000 1.0000
  Bi  Bi 0.64176 0.59450 0.00000 1.0000
  Bi  Bi 0.64176 0.59450 0.00000 1.0000
  Bi  Bi 0.68320 0.61522 0.36895 1.0000
  Bi  Bi 0.68320 0.61522 0.36895 1.0000
  Bi  Bi 0.67119 0.59741 0.63104 1.0000
  Bi  Bi 0.67119 0.59741 0.63104 1.0000
  Bi  Bi 0.66538 0.59450 0.00000 1.0000
  Bi  Bi 0.66538 0.59450 0.00000 1.0000
  Bi  Bi 0.66538 0.59450 0.00000 1.0000
  Bi  Bi 0.66538 0.59450 0.00000 1.0000
  Bi  Bi 0.70682 0.61522 0.36895 1.0000
  Bi  Bi 0.70682 0.61522 0.36895 1.0000
  Bi  Bi 0.69482 0.59741 0.63104 1.0000
  Bi  Bi 0.69482 0.59741 0.63104 1.0000
  Bi  Bi 0.68901 0.59450 0.00000 1.0000
  Bi  Bi 0.68901 0.59450 0.00000 1.0000
  Bi  Bi 0.68901 0.59450 0.00000 1.0000
  Bi  Bi 0.68901 0.59450 0.00000 1.0000
  Bi  Bi 0.73045 0.61522 0.36895 1.0000
  Bi  Bi 0.73045 0.61522 0.36895 1.0000
  Bi  Bi 0.71844 0.59741 0.63104 1.0000
  Bi  Bi 0.71844 0.59741 0.63104 1.0000
  Bi  Bi 0.71263 0.59450 0.00000 1.0000
  Bi  Bi 0.71263 0.59450 0.00000 1.0000
  Bi  Bi 0.71263 0.59450 0.00000 1.0000
  Bi  Bi 0.71263 0.59450 0.00000 1.0000
  Bi  Bi 0.75407 0.61522 0.36895 1.0000
  Bi  Bi 0.75407 0.61522 0.36895 1.0000
  Bi  Bi 0.74207 0.59741 0.63104 1.0000
  Bi  Bi 0.74207 0.59741 0.63104 1.0000
  Bi  Bi 0.73626 0.59450 0.00000 1.0000
  Bi  Bi 0.73626 0.59450 0.00000 1.0000
  Bi  Bi 0.73626 0.59450 0.00000 1.0000
  Bi  Bi 0.73626 0.59450 0.00000 1.0000
  Bi  Bi 0.77770 0.61522 0.36895 1.0000
  Bi  Bi 0.77770 0.61522 0.36895 1.0000
  Bi  Bi 0.76570 0.59741 0.63104 1.0000
  Bi  Bi 0.76570 0.59741 0.63104 1.0000
  Bi  Bi 0.75989 0.59450 0.00000 1.0000
  Bi  Bi 0.75989 0.59450 0.00000 1.0000
  Bi  Bi 0.75989 0.59450 0.00000 1.0000
  Bi  Bi 0.75989 0.59450 0.00000 1.0000
  Bi  Bi 0.80133 0.61522 0.36895 1.0000
  Bi  Bi 0.80133 0.61522 0.36895 1.0000
  Bi  Bi 0.78932 0.59741 0.63104 1.0000
  Bi  Bi 0.78932 0.59741 0.63104 1.0000
  Bi  Bi 0.78351 0.59450 0.00000 1.0000
  Bi  Bi 0.78351 0.59450 0.00000 1.0000
  Bi  Bi 0.78351 0.59450 0.00000 1.0000
  Bi  Bi 0.78351 0.59450 0.00000 1.0000
  Bi  Bi 0.82495 0.61522 0.36895 1.0000
  Bi  Bi 0.82495 0.61522 0.36895 1.0000
  Bi  Bi 0.81295 0.59741 0.63104 1.0000
  Bi  Bi 0.81295 0.59741 0.63104 1.0000
  Bi  Bi 0.80714 0.59450 0.00000 1.0000
  Bi  Bi 0.80714 0.59450 0.00000 1.0000
  Bi  Bi 0.80714 0.59450 0.00000 1.0000
  Bi  Bi 0.80714 0.59450 0.00000 1.0000
  Bi  Bi 0.84858 0.61522 0.36895 1.0000
  Bi  Bi 0.84858 0.61522 0.36895 1.0000
  Bi  Bi 0.83657 0.59741 0.63104 1.0000
  Bi  Bi 0.83657 0.59741 0.63104 1.0000
  Bi  Bi 0.83076 0.59450 0.00000 1.0000
  Bi  Bi 0.83076 0.59450 0.00000 1.0000
  Bi  Bi 0.83076 0.59450 0.00000 1.0000
  Bi  Bi 0.83076 0.59450 0.00000 1.0000
  Bi  Bi 0.87220 0.61522 0.36895 1.0000
  Bi  Bi 0.87220 0.61522 0.36895 1.0000
  Bi  Bi 0.86020 0.59741 0.63104 1.0000
  Bi  Bi 0.86020 0.59741 0.63104 1.0000
  Bi  Bi 0.85439 0.59450 0.00000 1.0000
  Bi  Bi 0.85439 0.59450 0.00000 1.0000
  Bi  Bi 0.85439 0.59450 0.00000 1.0000
  Bi  Bi 0.85439 0.59450 0.00000 1.0000
  Bi  Bi 0.89583 0.61522 0.36895 1.0000
  Bi  Bi 0.89583 0.61522 0.36895 1.0000
  Bi  Bi 0.88383 0.59741 0.63104 1.0000
  Bi  Bi 0.88383 0.59741 0.63104 1.0000
  Bi  Bi 0.87802 0.59450 0.00000 1.0000
  Bi  Bi 0.87802 0.59450 0.00000 1.0000
  Bi  Bi 0.87802 0.59450 0.00000 1.0000
  Bi  Bi 0.87802 0.59450 0.00000 1.0000
  Bi  Bi 0.91946 0.61522 0.36895 1.0000
  Bi  Bi 0.91946 0.61522 0.36895 1.0000
  Bi  Bi 0.90745 0.59741 0.63104 1.0000
  Bi  Bi 0.90745 0.59741 0.63104 1.0000
  Bi  Bi 0.90164 0.59450 0.00000 1.0000
  Bi  Bi 0.90164 0.59450 0.00000 1.0000
  Bi  Bi 0.90164 0.59450 0.00000 1.0000
  Bi  Bi 0.90164 0.59450 0.00000 1.0000
  Bi  Bi 0.94308 0.61522 0.36895 1.0000
  Bi  Bi 0.94308 0.61522 0.36895 1.0000
  Bi  Bi 0.93108 0.59741 0.63104 1.0000
  Bi  Bi 0.93108 0.59741 0.63104 1.0000
  Bi  Bi 0.92527 0.59450 0.00000 1.0000
  Bi  Bi 0.92527 0.59450 0.00000 1.0000
  Bi  Bi 0.92527 0.59450 0.00000 1.0000
  Bi  Bi 0.92527 0.59450 0.00000 1.0000
  Bi  Bi 0.96671 0.61522 0.36895 1.0000
  Bi  Bi 0.96671 0.61522 0.36895 1.0000
  Bi  Bi 0.95470 0.59741 0.63104 1.0000
  Bi  Bi 0.95470 0.59741 0.63104 1.0000
  Bi  Bi 0.94889 0.59450 0.00000 1.0000
  Bi  Bi 0.94889 0.59450 0.00000 1.0000
  Bi  Bi 0.94889 0.59450 0.00000 1.0000
  Bi  Bi 0.94889 0.59450 0.00000 1.0000
  Bi  Bi 0.04530 0.63885 0.36895 1.0000
  Bi  Bi 0.04530 0.63885 0.36895 1.0000
  Bi  Bi 0.03329 0.62104 0.63104 1.0000
  Bi  Bi 0.03329 0.62104 0.63104 1.0000
  Bi  Bi 0.02748 0.61813 0.00000 1.0000
  Bi  Bi 0.02748 0.61813 0.00000 1.0000
  Bi  Bi 0.02748 0.61813 0.00000 1.0000
  Bi  Bi 0.02748 0.61813 0.00000 1.0000
  Bi  Bi 0.06892 0.63885 0.36895 1.0000
  Bi  Bi 0.06892 0.63885 0.36895 1.0000
  Bi  Bi 0.05692 0.62104 0.63104 1.0000
  Bi  Bi 0.05692 0.62104 0.63104 1.0000
  Bi  Bi 0.05111 0.61813 0.00000 1.0000
  Bi  Bi 0.05111 0.61813 0.00000 1.0000
  Bi  Bi 0.05111 0.61813 0.00000 1.0000
  Bi  Bi 0.05111 0.61813 0.00000 1.0000
  Bi  Bi 0.09255 0.63885 0.36895 1.0000
  Bi  Bi 0.09255 0.63885 0.36895 1.0000
  Bi  Bi 0.08054 0.62104 0.63104 1.0000
  Bi  Bi 0.08054 0.62104 0.63104 1.0000
  Bi  Bi 0.07473 0.61813 0.00000 1.0000
  Bi  Bi 0.07473 0.61813 0.00000 1.0000
  Bi  Bi 0.07473 0.61813 0.00000 1.0000
  Bi  Bi 0.07473 0.61813 0.00000 1.0000
  Bi  Bi 0.11617 0.63885 0.36895 1.0000
  Bi  Bi 0.11617 0.63885 0.36895 1.0000
  Bi  Bi 0.10417 0.62104 0.63104 1.0000
  Bi  Bi 0.10417 0.62104 0.63104 1.0000
  Bi  Bi 0.09836 0.61813 0.00000 1.0000
  Bi  Bi 0.09836 0.61813 0.00000 1.0000
  Bi  Bi 0.09836 0.61813 0.00000 1.0000
  Bi  Bi 0.09836 0.61813 0.00000 1.0000
  Bi  Bi 0.13980 0.63885 0.36895 1.0000
  Bi  Bi 0.13980 0.63885 0.36895 1.0000
  Bi  Bi 0.12780 0.62104 0.63104 1.0000
  Bi  Bi 0.12780 0.62104 0.63104 1.0000
  Bi  Bi 0.12198 0.61813 0.00000 1.0000
  Bi  Bi 0.12198 0.61813 0.00000 1.0000
  Bi  Bi 0.12198 0.61813 0.00000 1.0000
  Bi  Bi 0.12198 0.61813 0.00000 1.0000
  Bi  Bi 0.16343 0.63885 0.36895 1.0000
  Bi  Bi 0.16343 0.63885 0.36895 1.0000
  Bi  Bi 0.15142 0.62104 0.63104 1.0000
  Bi  Bi 0.15142 0.62104 0.63104 1.0000
  Bi  Bi 0.14561 0.61813 0.00000 1.0000
  Bi  Bi 0.14561 0.61813 0.00000 1.0000
  Bi  Bi 0.14561 0.61813 0.00000 1.0000
  Bi  Bi 0.14561 0.61813 0.00000 1.0000
  Bi  Bi 0.18705 0.63885 0.36895 1.0000
  Bi  Bi 0.18705 0.63885 0.36895 1.0000
  Bi  Bi 0.17505 0.62104 0.63104 1.0000
  Bi  Bi 0.17505 0.62104 0.63104 1.0000
  Bi  Bi 0.16924 0.61813 0.00000 1.0000
  Bi  Bi 0.16924 0.61813 0.00000 1.0000
  Bi  Bi 0.16924 0.61813 0.00000 1.0000
  Bi  Bi 0.16924 0.61813 0.00000 1.0000
  Bi  Bi 0.21068 0.63885 0.36895 1.0000
  Bi  Bi 0.21068 0.63885 0.36895 1.0000
  Bi  Bi 0.19867 0.62104 0.63104 1.0000
  Bi  Bi 0.19867 0.62104 0.63104 1.0000
  Bi  Bi 0.19286 0.61813 0.00000 1.0000
  Bi  Bi 0.19286 0.61813 0.00000 1.0000
  Bi  Bi 0.19286 0.61813 0.00000 1.0000
  Bi  Bi 0.19286 0.61813 0.00000 1.0000
  Bi  Bi 0.23430 0.63885 0.36895 1.0000
  Bi  Bi 0.23430 0.63885 0.36895 1.0000
  Bi  Bi 0.22230 0.62104 0.63104 1.0000
  Bi  Bi 0.22230 0.62104 0.63104 1.0000
  Bi  Bi 0.21649 0.61813 0.00000 1.0000
  Bi  Bi 0.21649 0.61813 0.00000 1.0000
  Bi  Bi 0.21649 0.61813 0.00000 1.0000
  Bi  Bi 0.21649 0.61813 0.00000 1.0000
  Bi  Bi 0.25793 0.63885 0.36895 1.0000
  Bi  Bi 0.25793 0.63885 0.36895 1.0000
  Bi  Bi 0.24593 0.62104 0.63104 1.0000
  Bi  Bi 0.24593 0.62104 0.63104 1.0000
  Bi  Bi 0.24011 0.61813 0.00000 1.0000
  Bi  Bi 0.24011 0.61813 0.00000 1.0000
  Bi  Bi 0.24011 0.61813 0.00000 1.0000
  Bi  Bi 0.24011 0.61813 0.00000 1.0000
  Bi  Bi 0.28156 0.63885 0.36895 1.0000
  Bi  Bi 0.28156 0.63885 0.36895 1.0000
  Bi  Bi 0.26955 0.62104 0.63104 1.0000
  Bi  Bi 0.26955 0.62104 0.63104 1.0000
  Bi  Bi 0.26374 0.61813 0.00000 1.0000
  Bi  Bi 0.26374 0.61813 0.00000 1.0000
  Bi  Bi 0.26374 0.61813 0.00000 1.0000
  Bi  Bi 0.26374 0.61813 0.00000 1.0000
  Bi  Bi 0.30518 0.63885 0.36895 1.0000
  Bi  Bi 0.30518 0.63885 0.36895 1.0000
  Bi  Bi 0.29318 0.62104 0.63104 1.0000
  Bi  Bi 0.29318 0.62104 0.63104 1.0000
  Bi  Bi 0.28737 0.61813 0.00000 1.0000
  Bi  Bi 0.28737 0.61813 0.00000 1.0000
  Bi  Bi 0.28737 0.61813 0.00000 1.0000
  Bi  Bi 0.28737 0.61813 0.00000 1.0000
  Bi  Bi 0.32881 0.63885 0.36895 1.0000
  Bi  Bi 0.32881 0.63885 0.36895 1.0000
  Bi  Bi 0.31680 0.62104 0.63104 1.0000
  Bi  Bi 0.31680 0.62104 0.63104 1.0000
  Bi  Bi 0.31099 0.61813 0.00000 1.0000
  Bi  Bi 0.31099 0.61813 0.00000 1.0000
  Bi  Bi 0.31099 0.61813 0.00000 1.0000
  Bi  Bi 0.31099 0.61813 0.00000 1.0000
  Bi  Bi 0.35243 0.63885 0.36895 1.0000
  Bi  Bi 0.35243 0.63885 0.36895 1.0000
  Bi  Bi 0.34043 0.62104 0.63104 1.0000
  Bi  Bi 0.34043 0.62104 0.63104 1.0000
  Bi  Bi 0.33462 0.61813 0.00000 1.0000
  Bi  Bi 0.33462 0.61813 0.00000 1.0000
  Bi  Bi 0.33462 0.61813 0.00000 1.0000
  Bi  Bi 0.33462 0.61813 0.00000 1.0000
  Bi  Bi 0.37606 0.63885 0.36895 1.0000
  Bi  Bi 0.37606 0.63885 0.36895 1.0000
  Bi  Bi 0.36406 0.62104 0.63104 1.0000
  Bi  Bi 0.36406 0.62104 0.63104 1.0000
  Bi  Bi 0.35824 0.61813 0.00000 1.0000
  Bi  Bi 0.35824 0.61813 0.00000 1.0000
  Bi  Bi 0.35824 0.61813 0.00000 1.0000
  Bi  Bi 0.35824 0.61813 0.00000 1.0000
  Bi  Bi 0.39968 0.63885 0.36895 1.0000
  Bi  Bi 0.39968 0.63885 0.36895 1.0000
  Bi  Bi 0.38768 0.62104 0.63104 1.0000
  Bi  Bi 0.38768 0.62104 0.63104 1.0000
  Bi  Bi 0.38187 0.61813 0.00000 1.0000
  Bi  Bi 0.38187 0.61813 0.00000 1.0000
  Bi  Bi 0.38187 0.61813 0.00000 1.0000
  Bi  Bi 0.38187 0.61813 0.00000 1.0000
  Bi  Bi 0.42331 0.63885 0.36895 1.0000
  Bi  Bi 0.42331 0.63885 0.36895 1.0000
  Bi  Bi 0.41131 0.62104 0.63104 1.0000
  Bi  Bi 0.41131 0.62104 0.63104 1.0000
  Bi  Bi 0.40550 0.61813 0.00000 1.0000
  Bi  Bi 0.40550 0.61813 0.00000 1.0000
  Bi  Bi 0.40550 0.61813 0.00000 1.0000
  Bi  Bi 0.40550 0.61813 0.00000 1.0000
  Bi  Bi 0.44694 0.63885 0.36895 1.0000
  Bi  Bi 0.44694 0.63885 0.36895 1.0000
  Bi  Bi 0.43493 0.62104 0.63104 1.0000
  Bi  Bi 0.43493 0.62104 0.63104 1.0000
  Bi  Bi 0.42912 0.61813 0.00000 1.0000
  Bi  Bi 0.42912 0.61813 0.00000 1.0000
  Bi  Bi 0.42912 0.61813 0.00000 1.0000
  Bi  Bi 0.42912 0.61813 0.00000 1.0000
  Bi  Bi 0.47056 0.63885 0.36895 1.0000
  Bi  Bi 0.47056 0.63885 0.36895 1.0000
  Bi  Bi 0.45856 0.62104 0.63104 1.0000
  Bi  Bi 0.45856 0.62104 0.63104 1.0000
  Bi  Bi 0.45275 0.61813 0.00000 1.0000
  Bi  Bi 0.45275 0.61813 0.00000 1.0000
  Bi  Bi 0.45275 0.61813 0.00000 1.0000
  Bi  Bi 0.45275 0.61813 0.00000 1.0000
  Bi  Bi 0.49419 0.63885 0.36895 1.0000
  Bi  Bi 0.49419 0.63885 0.36895 1.0000
  Bi  Bi 0.48219 0.62104 0.63104 1.0000
  Bi  Bi 0.48219 0.62104 0.63104 1.0000
  Bi  Bi 0.47637 0.61813 0.00000 1.0000
  Bi  Bi 0.47637 0.61813 0.00000 1.0000
  Bi  Bi 0.47637 0.61813 0.00000 1.0000
  Bi  Bi 0.47637 0.61813 0.00000 1.0000
  Bi  Bi 0.51781 0.63885 0.36895 1.0000
  Bi  Bi 0.51781 0.63885 0.36895 1.0000
  Bi  Bi 0.50581 0.62104 0.63104 1.0000
  Bi  Bi 0.50581 0.62104 0.63104 1.0000
  Bi  Bi 0.50000 0.61813 0.00000 1.0000
  Bi  Bi 0.50000 0.61813 0.00000 1.0000
  Bi  Bi 0.50000 0.61813 0.00000 1.0000
  Bi  Bi 0.50000 0.61813 0.00000 1.0000
  Bi  Bi 0.54144 0.63885 0.36895 1.0000
  Bi  Bi 0.54144 0.63885 0.36895 1.0000
  Bi  Bi 0.52944 0.62104 0.63104 1.0000
  Bi  Bi 0.52944 0.62104 0.63104 1.0000
  Bi  Bi 0.52363 0.61813 0.00000 1.0000
  Bi  Bi 0.52363 0.61813 0.00000 1.0000
  Bi  Bi 0.52363 0.61813 0.00000 1.0000
  Bi  Bi 0.52363 0.61813 0.00000 1.0000
  Bi  Bi 0.56507 0.63885 0.36895 1.0000
  Bi  Bi 0.56507 0.63885 0.36895 1.0000
  Bi  Bi 0.55306 0.62104 0.63104 1.0000
  Bi  Bi 0.55306 0.62104 0.63104 1.0000
  Bi  Bi 0.54725 0.61813 0.00000 1.0000
  Bi  Bi 0.54725 0.61813 0.00000 1.0000
  Bi  Bi 0.54725 0.61813 0.00000 1.0000
  Bi  Bi 0.54725 0.61813 0.00000 1.0000
  Bi  Bi 0.58869 0.63885 0.36895 1.0000
  Bi  Bi 0.58869 0.63885 0.36895 1.0000
  Bi  Bi 0.57669 0.62104 0.63104 1.0000
  Bi  Bi 0.57669 0.62104 0.63104 1.0000
  Bi  Bi 0.57088 0.61813 0.00000 1.0000
  Bi  Bi 0.57088 0.61813 0.00000 1.0000
  Bi  Bi 0.57088 0.61813 0.00000 1.0000
  Bi  Bi 0.57088 0.61813 0.00000 1.0000
  Bi  Bi 0.61232 0.63885 0.36895 1.0000
  Bi  Bi 0.61232 0.63885 0.36895 1.0000
  Bi  Bi 0.60032 0.62104 0.63104 1.0000
  Bi  Bi 0.60032 0.62104 0.63104 1.0000
  Bi  Bi 0.59450 0.61813 0.00000 1.0000
  Bi  Bi 0.59450 0.61813 0.00000 1.0000
  Bi  Bi 0.59450 0.61813 0.00000 1.0000
  Bi  Bi 0.59450 0.61813 0.00000 1.0000
  Bi  Bi 0.63594 0.63885 0.36895 1.0000
  Bi  Bi 0.63594 0.63885 0.36895 1.0000
  Bi  Bi 0.62394 0.62104 0.63104 1.0000
  Bi  Bi 0.62394 0.62104 0.63104 1.0000
  Bi  Bi 0.61813 0.61813 0.00000 1.0000
  Bi  Bi 0.61813 0.61813 0.00000 1.0000
  Bi  Bi 0.61813 0.61813 0.00000 1.0000
  Bi  Bi 0.61813 0.61813 0.00000 1.0000
  Bi  Bi 0.65957 0.63885 0.36895 1.0000
  Bi  Bi 0.65957 0.63885 0.36895 1.0000
  Bi  Bi 0.64757 0.62104 0.63104 1.0000
  Bi  Bi 0.64757 0.62104 0.63104 1.0000
  Bi  Bi 0.64176 0.61813 0.00000 1.0000
  Bi  Bi 0.64176 0.61813 0.00000 1.0000
  Bi  Bi 0.64176 0.61813 0.00000 1.0000
  Bi  Bi 0.64176 0.61813 0.00000 1.0000
  Bi  Bi 0.68320 0.63885 0.36895 1.0000
  Bi  Bi 0.68320 0.63885 0.36895 1.0000
  Bi  Bi 0.67119 0.62104 0.63104 1.0000
  Bi  Bi 0.67119 0.62104 0.63104 1.0000
  Bi  Bi 0.66538 0.61813 0.00000 1.0000
  Bi  Bi 0.66538 0.61813 0.00000 1.0000
  Bi  Bi 0.66538 0.61813 0.00000 1.0000
  Bi  Bi 0.66538 0.61813 0.00000 1.0000
  Bi  Bi 0.70682 0.63885 0.36895 1.0000
  Bi  Bi 0.70682 0.63885 0.36895 1.0000
  Bi  Bi 0.69482 0.62104 0.63104 1.0000
  Bi  Bi 0.69482 0.62104 0.63104 1.0000
  Bi  Bi 0.68901 0.61813 0.00000 1.0000
  Bi  Bi 0.68901 0.61813 0.00000 1.0000
  Bi  Bi 0.68901 0.61813 0.00000 1.0000
  Bi  Bi 0.68901 0.61813 0.00000 1.0000
  Bi  Bi 0.73045 0.63885 0.36895 1.0000
  Bi  Bi 0.73045 0.63885 0.36895 1.0000
  Bi  Bi 0.71844 0.62104 0.63104 1.0000
  Bi  Bi 0.71844 0.62104 0.63104 1.0000
  Bi  Bi 0.71263 0.61813 0.00000 1.0000
  Bi  Bi 0.71263 0.61813 0.00000 1.0000
  Bi  Bi 0.71263 0.61813 0.00000 1.0000
  Bi  Bi 0.71263 0.61813 0.00000 1.0000
  Bi  Bi 0.75407 0.63885 0.36895 1.0000
  Bi  Bi 0.75407 0.63885 0.36895 1.0000
  Bi  Bi 0.74207 0.62104 0.63104 1.0000
  Bi  Bi 0.74207 0.62104 0.63104 1.0000
  Bi  Bi 0.73626 0.61813 0.00000 1.0000
  Bi  Bi 0.73626 0.61813 0.00000 1.0000
  Bi  Bi 0.73626 0.61813 0.00000 1.0000
  Bi  Bi 0.73626 0.61813 0.00000 1.0000
  Bi  Bi 0.77770 0.63885 0.36895 1.0000
  Bi  Bi 0.77770 0.63885 0.36895 1.0000
  Bi  Bi 0.76570 0.62104 0.63104 1.0000
  Bi  Bi 0.76570 0.62104 0.63104 1.0000
  Bi  Bi 0.75989 0.61813 0.00000 1.0000
  Bi  Bi 0.75989 0.61813 0.00000 1.0000
  Bi  Bi 0.75989 0.61813 0.00000 1.0000
  Bi  Bi 0.75989 0.61813 0.00000 1.0000
  Bi  Bi 0.80133 0.63885 0.36895 1.0000
  Bi  Bi 0.80133 0.63885 0.36895 1.0000
  Bi  Bi 0.78932 0.62104 0.63104 1.0000
  Bi  Bi 0.78932 0.62104 0.63104 1.0000
  Bi  Bi 0.78351 0.61813 0.00000 1.0000
  Bi  Bi 0.78351 0.61813 0.00000 1.0000
  Bi  Bi 0.78351 0.61813 0.00000 1.0000
  Bi  Bi 0.78351 0.61813 0.00000 1.0000
  Bi  Bi 0.82495 0.63885 0.36895 1.0000
  Bi  Bi 0.82495 0.63885 0.36895 1.0000
  Bi  Bi 0.81295 0.62104 0.63104 1.0000
  Bi  Bi 0.81295 0.62104 0.63104 1.0000
  Bi  Bi 0.80714 0.61813 0.00000 1.0000
  Bi  Bi 0.80714 0.61813 0.00000 1.0000
  Bi  Bi 0.80714 0.61813 0.00000 1.0000
  Bi  Bi 0.80714 0.61813 0.00000 1.0000
  Bi  Bi 0.84858 0.63885 0.36895 1.0000
  Bi  Bi 0.84858 0.63885 0.36895 1.0000
  Bi  Bi 0.83657 0.62104 0.63104 1.0000
  Bi  Bi 0.83657 0.62104 0.63104 1.0000
  Bi  Bi 0.83076 0.61813 0.00000 1.0000
  Bi  Bi 0.83076 0.61813 0.00000 1.0000
  Bi  Bi 0.83076 0.61813 0.00000 1.0000
  Bi  Bi 0.83076 0.61813 0.00000 1.0000
  Bi  Bi 0.87220 0.63885 0.36895 1.0000
  Bi  Bi 0.87220 0.63885 0.36895 1.0000
  Bi  Bi 0.86020 0.62104 0.63104 1.0000
  Bi  Bi 0.86020 0.62104 0.63104 1.0000
  Bi  Bi 0.85439 0.61813 0.00000 1.0000
  Bi  Bi 0.85439 0.61813 0.00000 1.0000
  Bi  Bi 0.85439 0.61813 0.00000 1.0000
  Bi  Bi 0.85439 0.61813 0.00000 1.0000
  Bi  Bi 0.89583 0.63885 0.36895 1.0000
  Bi  Bi 0.89583 0.63885 0.36895 1.0000
  Bi  Bi 0.88383 0.62104 0.63104 1.0000
  Bi  Bi 0.88383 0.62104 0.63104 1.0000
  Bi  Bi 0.87802 0.61813 0.00000 1.0000
  Bi  Bi 0.87802 0.61813 0.00000 1.0000
  Bi  Bi 0.87802 0.61813 0.00000 1.0000
  Bi  Bi 0.87802 0.61813 0.00000 1.0000
  Bi  Bi 0.91946 0.63885 0.36895 1.0000
  Bi  Bi 0.91946 0.63885 0.36895 1.0000
  Bi  Bi 0.90745 0.62104 0.63104 1.0000
  Bi  Bi 0.90745 0.62104 0.63104 1.0000
  Bi  Bi 0.90164 0.61813 0.00000 1.0000
  Bi  Bi 0.90164 0.61813 0.00000 1.0000
  Bi  Bi 0.90164 0.61813 0.00000 1.0000
  Bi  Bi 0.90164 0.61813 0.00000 1.0000
  Bi  Bi 0.94308 0.63885 0.36895 1.0000
  Bi  Bi 0.94308 0.63885 0.36895 1.0000
  Bi  Bi 0.93108 0.62104 0.63104 1.0000
  Bi  Bi 0.93108 0.62104 0.63104 1.0000
  Bi  Bi 0.92527 0.61813 0.00000 1.0000
  Bi  Bi 0.92527 0.61813 0.00000 1.0000
  Bi  Bi 0.92527 0.61813 0.00000 1.0000
  Bi  Bi 0.92527 0.61813 0.00000 1.0000
  Bi  Bi 0.96671 0.63885 0.36895 1.0000
  Bi  Bi 0.96671 0.63885 0.36895 1.0000
  Bi  Bi 0.95470 0.62104 0.63104 1.0000
  Bi  Bi 0.95470 0.62104 0.63104 1.0000
  Bi  Bi 0.94889 0.61813 0.00000 1.0000
  Bi  Bi 0.94889 0.61813 0.00000 1.0000
  Bi  Bi 0.94889 0.61813 0.00000 1.0000
  Bi  Bi 0.94889 0.61813 0.00000 1.0000
  Bi  Bi 0.04530 0.66248 0.36895 1.0000
  Bi  Bi 0.04530 0.66248 0.36895 1.0000
  Bi  Bi 0.03329 0.64466 0.63104 1.0000
  Bi  Bi 0.03329 0.64466 0.63104 1.0000
  Bi  Bi 0.02748 0.64176 0.00000 1.0000
  Bi  Bi 0.02748 0.64176 0.00000 1.0000
  Bi  Bi 0.02748 0.64176 0.00000 1.0000
  Bi  Bi 0.02748 0.64176 0.00000 1.0000
  Bi  Bi 0.06892 0.66248 0.36895 1.0000
  Bi  Bi 0.06892 0.66248 0.36895 1.0000
  Bi  Bi 0.05692 0.64466 0.63104 1.0000
  Bi  Bi 0.05692 0.64466 0.63104 1.0000
  Bi  Bi 0.05111 0.64176 0.00000 1.0000
  Bi  Bi 0.05111 0.64176 0.00000 1.0000
  Bi  Bi 0.05111 0.64176 0.00000 1.0000
  Bi  Bi 0.05111 0.64176 0.00000 1.0000
  Bi  Bi 0.09255 0.66248 0.36895 1.0000
  Bi  Bi 0.09255 0.66248 0.36895 1.0000
  Bi  Bi 0.08054 0.64466 0.63104 1.0000
  Bi  Bi 0.08054 0.64466 0.63104 1.0000
  Bi  Bi 0.07473 0.64176 0.00000 1.0000
  Bi  Bi 0.07473 0.64176 0.00000 1.0000
  Bi  Bi 0.07473 0.64176 0.00000 1.0000
  Bi  Bi 0.07473 0.64176 0.00000 1.0000
  Bi  Bi 0.11617 0.66248 0.36895 1.0000
  Bi  Bi 0.11617 0.66248 0.36895 1.0000
  Bi  Bi 0.10417 0.64466 0.63104 1.0000
  Bi  Bi 0.10417 0.64466 0.63104 1.0000
  Bi  Bi 0.09836 0.64176 0.00000 1.0000
  Bi  Bi 0.09836 0.64176 0.00000 1.0000
  Bi  Bi 0.09836 0.64176 0.00000 1.0000
  Bi  Bi 0.09836 0.64176 0.00000 1.0000
  Bi  Bi 0.13980 0.66248 0.36895 1.0000
  Bi  Bi 0.13980 0.66248 0.36895 1.0000
  Bi  Bi 0.12780 0.64466 0.63104 1.0000
  Bi  Bi 0.12780 0.64466 0.63104 1.0000
  Bi  Bi 0.12198 0.64176 0.00000 1.0000
  Bi  Bi 0.12198 0.64176 0.00000 1.0000
  Bi  Bi 0.12198 0.64176 0.00000 1.0000
  Bi  Bi 0.12198 0.64176 0.00000 1.0000
  Bi  Bi 0.16343 0.66248 0.36895 1.0000
  Bi  Bi 0.16343 0.66248 0.36895 1.0000
  Bi  Bi 0.15142 0.64466 0.63104 1.0000
  Bi  Bi 0.15142 0.64466 0.63104 1.0000
  Bi  Bi 0.14561 0.64176 0.00000 1.0000
  Bi  Bi 0.14561 0.64176 0.00000 1.0000
  Bi  Bi 0.14561 0.64176 0.00000 1.0000
  Bi  Bi 0.14561 0.64176 0.00000 1.0000
  Bi  Bi 0.18705 0.66248 0.36895 1.0000
  Bi  Bi 0.18705 0.66248 0.36895 1.0000
  Bi  Bi 0.17505 0.64466 0.63104 1.0000
  Bi  Bi 0.17505 0.64466 0.63104 1.0000
  Bi  Bi 0.16924 0.64176 0.00000 1.0000
  Bi  Bi 0.16924 0.64176 0.00000 1.0000
  Bi  Bi 0.16924 0.64176 0.00000 1.0000
  Bi  Bi 0.16924 0.64176 0.00000 1.0000
  Bi  Bi 0.21068 0.66248 0.36895 1.0000
  Bi  Bi 0.21068 0.66248 0.36895 1.0000
  Bi  Bi 0.19867 0.64466 0.63104 1.0000
  Bi  Bi 0.19867 0.64466 0.63104 1.0000
  Bi  Bi 0.19286 0.64176 0.00000 1.0000
  Bi  Bi 0.19286 0.64176 0.00000 1.0000
  Bi  Bi 0.19286 0.64176 0.00000 1.0000
  Bi  Bi 0.19286 0.64176 0.00000 1.0000
  Bi  Bi 0.23430 0.66248 0.36895 1.0000
  Bi  Bi 0.23430 0.66248 0.36895 1.0000
  Bi  Bi 0.22230 0.64466 0.63104 1.0000
  Bi  Bi 0.22230 0.64466 0.63104 1.0000
  Bi  Bi 0.21649 0.64176 0.00000 1.0000
  Bi  Bi 0.21649 0.64176 0.00000 1.0000
  Bi  Bi 0.21649 0.64176 0.00000 1.0000
  Bi  Bi 0.21649 0.64176 0.00000 1.0000
  Bi  Bi 0.25793 0.66248 0.36895 1.0000
  Bi  Bi 0.25793 0.66248 0.36895 1.0000
  Bi  Bi 0.24593 0.64466 0.63104 1.0000
  Bi  Bi 0.24593 0.64466 0.63104 1.0000
  Bi  Bi 0.24011 0.64176 0.00000 1.0000
  Bi  Bi 0.24011 0.64176 0.00000 1.0000
  Bi  Bi 0.24011 0.64176 0.00000 1.0000
  Bi  Bi 0.24011 0.64176 0.00000 1.0000
  Bi  Bi 0.28156 0.66248 0.36895 1.0000
  Bi  Bi 0.28156 0.66248 0.36895 1.0000
  Bi  Bi 0.26955 0.64466 0.63104 1.0000
  Bi  Bi 0.26955 0.64466 0.63104 1.0000
  Bi  Bi 0.26374 0.64176 0.00000 1.0000
  Bi  Bi 0.26374 0.64176 0.00000 1.0000
  Bi  Bi 0.26374 0.64176 0.00000 1.0000
  Bi  Bi 0.26374 0.64176 0.00000 1.0000
  Bi  Bi 0.30518 0.66248 0.36895 1.0000
  Bi  Bi 0.30518 0.66248 0.36895 1.0000
  Bi  Bi 0.29318 0.64466 0.63104 1.0000
  Bi  Bi 0.29318 0.64466 0.63104 1.0000
  Bi  Bi 0.28737 0.64176 0.00000 1.0000
  Bi  Bi 0.28737 0.64176 0.00000 1.0000
  Bi  Bi 0.28737 0.64176 0.00000 1.0000
  Bi  Bi 0.28737 0.64176 0.00000 1.0000
  Bi  Bi 0.32881 0.66248 0.36895 1.0000
  Bi  Bi 0.32881 0.66248 0.36895 1.0000
  Bi  Bi 0.31680 0.64466 0.63104 1.0000
  Bi  Bi 0.31680 0.64466 0.63104 1.0000
  Bi  Bi 0.31099 0.64176 0.00000 1.0000
  Bi  Bi 0.31099 0.64176 0.00000 1.0000
  Bi  Bi 0.31099 0.64176 0.00000 1.0000
  Bi  Bi 0.31099 0.64176 0.00000 1.0000
  Bi  Bi 0.35243 0.66248 0.36895 1.0000
  Bi  Bi 0.35243 0.66248 0.36895 1.0000
  Bi  Bi 0.34043 0.64466 0.63104 1.0000
  Bi  Bi 0.34043 0.64466 0.63104 1.0000
  Bi  Bi 0.33462 0.64176 0.00000 1.0000
  Bi  Bi 0.33462 0.64176 0.00000 1.0000
  Bi  Bi 0.33462 0.64176 0.00000 1.0000
  Bi  Bi 0.33462 0.64176 0.00000 1.0000
  Bi  Bi 0.37606 0.66248 0.36895 1.0000
  Bi  Bi 0.37606 0.66248 0.36895 1.0000
  Bi  Bi 0.36406 0.64466 0.63104 1.0000
  Bi  Bi 0.36406 0.64466 0.63104 1.0000
  Bi  Bi 0.35824 0.64176 0.00000 1.0000
  Bi  Bi 0.35824 0.64176 0.00000 1.0000
  Bi  Bi 0.35824 0.64176 0.00000 1.0000
  Bi  Bi 0.35824 0.64176 0.00000 1.0000
  Bi  Bi 0.39968 0.66248 0.36895 1.0000
  Bi  Bi 0.39968 0.66248 0.36895 1.0000
  Bi  Bi 0.38768 0.64466 0.63104 1.0000
  Bi  Bi 0.38768 0.64466 0.63104 1.0000
  Bi  Bi 0.38187 0.64176 0.00000 1.0000
  Bi  Bi 0.38187 0.64176 0.00000 1.0000
  Bi  Bi 0.38187 0.64176 0.00000 1.0000
  Bi  Bi 0.38187 0.64176 0.00000 1.0000
  Bi  Bi 0.42331 0.66248 0.36895 1.0000
  Bi  Bi 0.42331 0.66248 0.36895 1.0000
  Bi  Bi 0.41131 0.64466 0.63104 1.0000
  Bi  Bi 0.41131 0.64466 0.63104 1.0000
  Bi  Bi 0.40550 0.64176 0.00000 1.0000
  Bi  Bi 0.40550 0.64176 0.00000 1.0000
  Bi  Bi 0.40550 0.64176 0.00000 1.0000
  Bi  Bi 0.40550 0.64176 0.00000 1.0000
  Bi  Bi 0.44694 0.66248 0.36895 1.0000
  Bi  Bi 0.44694 0.66248 0.36895 1.0000
  Bi  Bi 0.43493 0.64466 0.63104 1.0000
  Bi  Bi 0.43493 0.64466 0.63104 1.0000
  Bi  Bi 0.42912 0.64176 0.00000 1.0000
  Bi  Bi 0.42912 0.64176 0.00000 1.0000
  Bi  Bi 0.42912 0.64176 0.00000 1.0000
  Bi  Bi 0.42912 0.64176 0.00000 1.0000
  Bi  Bi 0.47056 0.66248 0.36895 1.0000
  Bi  Bi 0.47056 0.66248 0.36895 1.0000
  Bi  Bi 0.45856 0.64466 0.63104 1.0000
  Bi  Bi 0.45856 0.64466 0.63104 1.0000
  Bi  Bi 0.45275 0.64176 0.00000 1.0000
  Bi  Bi 0.45275 0.64176 0.00000 1.0000
  Bi  Bi 0.45275 0.64176 0.00000 1.0000
  Bi  Bi 0.45275 0.64176 0.00000 1.0000
  Bi  Bi 0.49419 0.66248 0.36895 1.0000
  Bi  Bi 0.49419 0.66248 0.36895 1.0000
  Bi  Bi 0.48219 0.64466 0.63104 1.0000
  Bi  Bi 0.48219 0.64466 0.63104 1.0000
  Bi  Bi 0.47637 0.64176 0.00000 1.0000
  Bi  Bi 0.47637 0.64176 0.00000 1.0000
  Bi  Bi 0.47637 0.64176 0.00000 1.0000
  Bi  Bi 0.47637 0.64176 0.00000 1.0000
  Bi  Bi 0.51781 0.66248 0.36895 1.0000
  Bi  Bi 0.51781 0.66248 0.36895 1.0000
  Bi  Bi 0.50581 0.64466 0.63104 1.0000
  Bi  Bi 0.50581 0.64466 0.63104 1.0000
  Bi  Bi 0.50000 0.64176 0.00000 1.0000
  Bi  Bi 0.50000 0.64176 0.00000 1.0000
  Bi  Bi 0.50000 0.64176 0.00000 1.0000
  Bi  Bi 0.50000 0.64176 0.00000 1.0000
  Bi  Bi 0.54144 0.66248 0.36895 1.0000
  Bi  Bi 0.54144 0.66248 0.36895 1.0000
  Bi  Bi 0.52944 0.64466 0.63104 1.0000
  Bi  Bi 0.52944 0.64466 0.63104 1.0000
  Bi  Bi 0.52363 0.64176 0.00000 1.0000
  Bi  Bi 0.52363 0.64176 0.00000 1.0000
  Bi  Bi 0.52363 0.64176 0.00000 1.0000
  Bi  Bi 0.52363 0.64176 0.00000 1.0000
  Bi  Bi 0.56507 0.66248 0.36895 1.0000
  Bi  Bi 0.56507 0.66248 0.36895 1.0000
  Bi  Bi 0.55306 0.64466 0.63104 1.0000
  Bi  Bi 0.55306 0.64466 0.63104 1.0000
  Bi  Bi 0.54725 0.64176 0.00000 1.0000
  Bi  Bi 0.54725 0.64176 0.00000 1.0000
  Bi  Bi 0.54725 0.64176 0.00000 1.0000
  Bi  Bi 0.54725 0.64176 0.00000 1.0000
  Bi  Bi 0.58869 0.66248 0.36895 1.0000
  Bi  Bi 0.58869 0.66248 0.36895 1.0000
  Bi  Bi 0.57669 0.64466 0.63104 1.0000
  Bi  Bi 0.57669 0.64466 0.63104 1.0000
  Bi  Bi 0.57088 0.64176 0.00000 1.0000
  Bi  Bi 0.57088 0.64176 0.00000 1.0000
  Bi  Bi 0.57088 0.64176 0.00000 1.0000
  Bi  Bi 0.57088 0.64176 0.00000 1.0000
  Bi  Bi 0.61232 0.66248 0.36895 1.0000
  Bi  Bi 0.61232 0.66248 0.36895 1.0000
  Bi  Bi 0.60032 0.64466 0.63104 1.0000
  Bi  Bi 0.60032 0.64466 0.63104 1.0000
  Bi  Bi 0.59450 0.64176 0.00000 1.0000
  Bi  Bi 0.59450 0.64176 0.00000 1.0000
  Bi  Bi 0.59450 0.64176 0.00000 1.0000
  Bi  Bi 0.59450 0.64176 0.00000 1.0000
  Bi  Bi 0.63594 0.66248 0.36895 1.0000
  Bi  Bi 0.63594 0.66248 0.36895 1.0000
  Bi  Bi 0.62394 0.64466 0.63104 1.0000
  Bi  Bi 0.62394 0.64466 0.63104 1.0000
  Bi  Bi 0.61813 0.64176 0.00000 1.0000
  Bi  Bi 0.61813 0.64176 0.00000 1.0000
  Bi  Bi 0.61813 0.64176 0.00000 1.0000
  Bi  Bi 0.61813 0.64176 0.00000 1.0000
  Bi  Bi 0.65957 0.66248 0.36895 1.0000
  Bi  Bi 0.65957 0.66248 0.36895 1.0000
  Bi  Bi 0.64757 0.64466 0.63104 1.0000
  Bi  Bi 0.64757 0.64466 0.63104 1.0000
  Bi  Bi 0.64176 0.64176 0.00000 1.0000
  Bi  Bi 0.64176 0.64176 0.00000 1.0000
  Bi  Bi 0.64176 0.64176 0.00000 1.0000
  Bi  Bi 0.64176 0.64176 0.00000 1.0000
  Bi  Bi 0.68320 0.66248 0.36895 1.0000
  Bi  Bi 0.68320 0.66248 0.36895 1.0000
  Bi  Bi 0.67119 0.64466 0.63104 1.0000
  Bi  Bi 0.67119 0.64466 0.63104 1.0000
  Bi  Bi 0.66538 0.64176 0.00000 1.0000
  Bi  Bi 0.66538 0.64176 0.00000 1.0000
  Bi  Bi 0.66538 0.64176 0.00000 1.0000
  Bi  Bi 0.66538 0.64176 0.00000 1.0000
  Bi  Bi 0.70682 0.66248 0.36895 1.0000
  Bi  Bi 0.70682 0.66248 0.36895 1.0000
  Bi  Bi 0.69482 0.64466 0.63104 1.0000
  Bi  Bi 0.69482 0.64466 0.63104 1.0000
  Bi  Bi 0.68901 0.64176 0.00000 1.0000
  Bi  Bi 0.68901 0.64176 0.00000 1.0000
  Bi  Bi 0.68901 0.64176 0.00000 1.0000
  Bi  Bi 0.68901 0.64176 0.00000 1.0000
  Bi  Bi 0.73045 0.66248 0.36895 1.0000
  Bi  Bi 0.73045 0.66248 0.36895 1.0000
  Bi  Bi 0.71844 0.64466 0.63104 1.0000
  Bi  Bi 0.71844 0.64466 0.63104 1.0000
  Bi  Bi 0.71263 0.64176 0.00000 1.0000
  Bi  Bi 0.71263 0.64176 0.00000 1.0000
  Bi  Bi 0.71263 0.64176 0.00000 1.0000
  Bi  Bi 0.71263 0.64176 0.00000 1.0000
  Bi  Bi 0.75407 0.66248 0.36895 1.0000
  Bi  Bi 0.75407 0.66248 0.36895 1.0000
  Bi  Bi 0.74207 0.64466 0.63104 1.0000
  Bi  Bi 0.74207 0.64466 0.63104 1.0000
  Bi  Bi 0.73626 0.64176 0.00000 1.0000
  Bi  Bi 0.73626 0.64176 0.00000 1.0000
  Bi  Bi 0.73626 0.64176 0.00000 1.0000
  Bi  Bi 0.73626 0.64176 0.00000 1.0000
  Bi  Bi 0.77770 0.66248 0.36895 1.0000
  Bi  Bi 0.77770 0.66248 0.36895 1.0000
  Bi  Bi 0.76570 0.64466 0.63104 1.0000
  Bi  Bi 0.76570 0.64466 0.63104 1.0000
  Bi  Bi 0.75989 0.64176 0.00000 1.0000
  Bi  Bi 0.75989 0.64176 0.00000 1.0000
  Bi  Bi 0.75989 0.64176 0.00000 1.0000
  Bi  Bi 0.75989 0.64176 0.00000 1.0000
  Bi  Bi 0.80133 0.66248 0.36895 1.0000
  Bi  Bi 0.80133 0.66248 0.36895 1.0000
  Bi  Bi 0.78932 0.64466 0.63104 1.0000
  Bi  Bi 0.78932 0.64466 0.63104 1.0000
  Bi  Bi 0.78351 0.64176 0.00000 1.0000
  Bi  Bi 0.78351 0.64176 0.00000 1.0000
  Bi  Bi 0.78351 0.64176 0.00000 1.0000
  Bi  Bi 0.78351 0.64176 0.00000 1.0000
  Bi  Bi 0.82495 0.66248 0.36895 1.0000
  Bi  Bi 0.82495 0.66248 0.36895 1.0000
  Bi  Bi 0.81295 0.64466 0.63104 1.0000
  Bi  Bi 0.81295 0.64466 0.63104 1.0000
  Bi  Bi 0.80714 0.64176 0.00000 1.0000
  Bi  Bi 0.80714 0.64176 0.00000 1.0000
  Bi  Bi 0.80714 0.64176 0.00000 1.0000
  Bi  Bi 0.80714 0.64176 0.00000 1.0000
  Bi  Bi 0.84858 0.66248 0.36895 1.0000
  Bi  Bi 0.84858 0.66248 0.36895 1.0000
  Bi  Bi 0.83657 0.64466 0.63104 1.0000
  Bi  Bi 0.83657 0.64466 0.63104 1.0000
  Bi  Bi 0.83076 0.64176 0.00000 1.0000
  Bi  Bi 0.83076 0.64176 0.00000 1.0000
  Bi  Bi 0.83076 0.64176 0.00000 1.0000
  Bi  Bi 0.83076 0.64176 0.00000 1.0000
  Bi  Bi 0.87220 0.66248 0.36895 1.0000
  Bi  Bi 0.87220 0.66248 0.36895 1.0000
  Bi  Bi 0.86020 0.64466 0.63104 1.0000
  Bi  Bi 0.86020 0.64466 0.63104 1.0000
  Bi  Bi 0.85439 0.64176 0.00000 1.0000
  Bi  Bi 0.85439 0.64176 0.00000 1.0000
  Bi  Bi 0.85439 0.64176 0.00000 1.0000
  Bi  Bi 0.85439 0.64176 0.00000 1.0000
  Bi  Bi 0.89583 0.66248 0.36895 1.0000
  Bi  Bi 0.89583 0.66248 0.36895 1.0000
  Bi  Bi 0.88383 0.64466 0.63104 1.0000
  Bi  Bi 0.88383 0.64466 0.63104 1.0000
  Bi  Bi 0.87802 0.64176 0.00000 1.0000
  Bi  Bi 0.87802 0.64176 0.00000 1.0000
  Bi  Bi 0.87802 0.64176 0.00000 1.0000
  Bi  Bi 0.87802 0.64176 0.00000 1.0000
  Bi  Bi 0.91946 0.66248 0.36895 1.0000
  Bi  Bi 0.91946 0.66248 0.36895 1.0000
  Bi  Bi 0.90745 0.64466 0.63104 1.0000
  Bi  Bi 0.90745 0.64466 0.63104 1.0000
  Bi  Bi 0.90164 0.64176 0.00000 1.0000
  Bi  Bi 0.90164 0.64176 0.00000 1.0000
  Bi  Bi 0.90164 0.64176 0.00000 1.0000
  Bi  Bi 0.90164 0.64176 0.00000 1.0000
  Bi  Bi 0.94308 0.66248 0.36895 1.0000
  Bi  Bi 0.94308 0.66248 0.36895 1.0000
  Bi  Bi 0.93108 0.64466 0.63104 1.0000
  Bi  Bi 0.93108 0.64466 0.63104 1.0000
  Bi  Bi 0.92527 0.64176 0.00000 1.0000
  Bi  Bi 0.92527 0.64176 0.00000 1.0000
  Bi  Bi 0.92527 0.64176 0.00000 1.0000
  Bi  Bi 0.92527 0.64176 0.00000 1.0000
  Bi  Bi 0.96671 0.66248 0.36895 1.0000
  Bi  Bi 0.96671 0.66248 0.36895 1.0000
  Bi  Bi 0.95470 0.64466 0.63104 1.0000
  Bi  Bi 0.95470 0.64466 0.63104 1.0000
  Bi  Bi 0.94889 0.64176 0.00000 1.0000
  Bi  Bi 0.94889 0.64176 0.00000 1.0000
  Bi  Bi 0.94889 0.64176 0.00000 1.0000
  Bi  Bi 0.94889 0.64176 0.00000 1.0000
  Bi  Bi 0.04530 0.68610 0.36895 1.0000
  Bi  Bi 0.04530 0.68610 0.36895 1.0000
  Bi  Bi 0.03329 0.66829 0.63104 1.0000
  Bi  Bi 0.03329 0.66829 0.63104 1.0000
  Bi  Bi 0.02748 0.66538 0.00000 1.0000
  Bi  Bi 0.02748 0.66538 0.00000 1.0000
  Bi  Bi 0.02748 0.66538 0.00000 1.0000
  Bi  Bi 0.02748 0.66538 0.00000 1.0000
  Bi  Bi 0.06892 0.68610 0.36895 1.0000
  Bi  Bi 0.06892 0.68610 0.36895 1.0000
  Bi  Bi 0.05692 0.66829 0.63104 1.0000
  Bi  Bi 0.05692 0.66829 0.63104 1.0000
  Bi  Bi 0.05111 0.66538 0.00000 1.0000
  Bi  Bi 0.05111 0.66538 0.00000 1.0000
  Bi  Bi 0.05111 0.66538 0.00000 1.0000
  Bi  Bi 0.05111 0.66538 0.00000 1.0000
  Bi  Bi 0.09255 0.68610 0.36895 1.0000
  Bi  Bi 0.09255 0.68610 0.36895 1.0000
  Bi  Bi 0.08054 0.66829 0.63104 1.0000
  Bi  Bi 0.08054 0.66829 0.63104 1.0000
  Bi  Bi 0.07473 0.66538 0.00000 1.0000
  Bi  Bi 0.07473 0.66538 0.00000 1.0000
  Bi  Bi 0.07473 0.66538 0.00000 1.0000
  Bi  Bi 0.07473 0.66538 0.00000 1.0000
  Bi  Bi 0.11617 0.68610 0.36895 1.0000
  Bi  Bi 0.11617 0.68610 0.36895 1.0000
  Bi  Bi 0.10417 0.66829 0.63104 1.0000
  Bi  Bi 0.10417 0.66829 0.63104 1.0000
  Bi  Bi 0.09836 0.66538 0.00000 1.0000
  Bi  Bi 0.09836 0.66538 0.00000 1.0000
  Bi  Bi 0.09836 0.66538 0.00000 1.0000
  Bi  Bi 0.09836 0.66538 0.00000 1.0000
  Bi  Bi 0.13980 0.68610 0.36895 1.0000
  Bi  Bi 0.13980 0.68610 0.36895 1.0000
  Bi  Bi 0.12780 0.66829 0.63104 1.0000
  Bi  Bi 0.12780 0.66829 0.63104 1.0000
  Bi  Bi 0.12198 0.66538 0.00000 1.0000
  Bi  Bi 0.12198 0.66538 0.00000 1.0000
  Bi  Bi 0.12198 0.66538 0.00000 1.0000
  Bi  Bi 0.12198 0.66538 0.00000 1.0000
  Bi  Bi 0.16343 0.68610 0.36895 1.0000
  Bi  Bi 0.16343 0.68610 0.36895 1.0000
  Bi  Bi 0.15142 0.66829 0.63104 1.0000
  Bi  Bi 0.15142 0.66829 0.63104 1.0000
  Bi  Bi 0.14561 0.66538 0.00000 1.0000
  Bi  Bi 0.14561 0.66538 0.00000 1.0000
  Bi  Bi 0.14561 0.66538 0.00000 1.0000
  Bi  Bi 0.14561 0.66538 0.00000 1.0000
  Bi  Bi 0.18705 0.68610 0.36895 1.0000
  Bi  Bi 0.18705 0.68610 0.36895 1.0000
  Bi  Bi 0.17505 0.66829 0.63104 1.0000
  Bi  Bi 0.17505 0.66829 0.63104 1.0000
  Bi  Bi 0.16924 0.66538 0.00000 1.0000
  Bi  Bi 0.16924 0.66538 0.00000 1.0000
  Bi  Bi 0.16924 0.66538 0.00000 1.0000
  Bi  Bi 0.16924 0.66538 0.00000 1.0000
  Bi  Bi 0.21068 0.68610 0.36895 1.0000
  Bi  Bi 0.21068 0.68610 0.36895 1.0000
  Bi  Bi 0.19867 0.66829 0.63104 1.0000
  Bi  Bi 0.19867 0.66829 0.63104 1.0000
  Bi  Bi 0.19286 0.66538 0.00000 1.0000
  Bi  Bi 0.19286 0.66538 0.00000 1.0000
  Bi  Bi 0.19286 0.66538 0.00000 1.0000
  Bi  Bi 0.19286 0.66538 0.00000 1.0000
  Bi  Bi 0.23430 0.68610 0.36895 1.0000
  Bi  Bi 0.23430 0.68610 0.36895 1.0000
  Bi  Bi 0.22230 0.66829 0.63104 1.0000
  Bi  Bi 0.22230 0.66829 0.63104 1.0000
  Bi  Bi 0.21649 0.66538 0.00000 1.0000
  Bi  Bi 0.21649 0.66538 0.00000 1.0000
  Bi  Bi 0.21649 0.66538 0.00000 1.0000
  Bi  Bi 0.21649 0.66538 0.00000 1.0000
  Bi  Bi 0.25793 0.68610 0.36895 1.0000
  Bi  Bi 0.25793 0.68610 0.36895 1.0000
  Bi  Bi 0.24593 0.66829 0.63104 1.0000
  Bi  Bi 0.24593 0.66829 0.63104 1.0000
  Bi  Bi 0.24011 0.66538 0.00000 1.0000
  Bi  Bi 0.24011 0.66538 0.00000 1.0000
  Bi  Bi 0.24011 0.66538 0.00000 1.0000
  Bi  Bi 0.24011 0.66538 0.00000 1.0000
  Bi  Bi 0.28156 0.68610 0.36895 1.0000
  Bi  Bi 0.28156 0.68610 0.36895 1.0000
  Bi  Bi 0.26955 0.66829 0.63104 1.0000
  Bi  Bi 0.26955 0.66829 0.63104 1.0000
  Bi  Bi 0.26374 0.66538 0.00000 1.0000
  Bi  Bi 0.26374 0.66538 0.00000 1.0000
  Bi  Bi 0.26374 0.66538 0.00000 1.0000
  Bi  Bi 0.26374 0.66538 0.00000 1.0000
  Bi  Bi 0.30518 0.68610 0.36895 1.0000
  Bi  Bi 0.30518 0.68610 0.36895 1.0000
  Bi  Bi 0.29318 0.66829 0.63104 1.0000
  Bi  Bi 0.29318 0.66829 0.63104 1.0000
  Bi  Bi 0.28737 0.66538 0.00000 1.0000
  Bi  Bi 0.28737 0.66538 0.00000 1.0000
  Bi  Bi 0.28737 0.66538 0.00000 1.0000
  Bi  Bi 0.28737 0.66538 0.00000 1.0000
  Bi  Bi 0.32881 0.68610 0.36895 1.0000
  Bi  Bi 0.32881 0.68610 0.36895 1.0000
  Bi  Bi 0.31680 0.66829 0.63104 1.0000
  Bi  Bi 0.31680 0.66829 0.63104 1.0000
  Bi  Bi 0.31099 0.66538 0.00000 1.0000
  Bi  Bi 0.31099 0.66538 0.00000 1.0000
  Bi  Bi 0.31099 0.66538 0.00000 1.0000
  Bi  Bi 0.31099 0.66538 0.00000 1.0000
  Bi  Bi 0.35243 0.68610 0.36895 1.0000
  Bi  Bi 0.35243 0.68610 0.36895 1.0000
  Bi  Bi 0.34043 0.66829 0.63104 1.0000
  Bi  Bi 0.34043 0.66829 0.63104 1.0000
  Bi  Bi 0.33462 0.66538 0.00000 1.0000
  Bi  Bi 0.33462 0.66538 0.00000 1.0000
  Bi  Bi 0.33462 0.66538 0.00000 1.0000
  Bi  Bi 0.33462 0.66538 0.00000 1.0000
  Bi  Bi 0.37606 0.68610 0.36895 1.0000
  Bi  Bi 0.37606 0.68610 0.36895 1.0000
  Bi  Bi 0.36406 0.66829 0.63104 1.0000
  Bi  Bi 0.36406 0.66829 0.63104 1.0000
  Bi  Bi 0.35824 0.66538 0.00000 1.0000
  Bi  Bi 0.35824 0.66538 0.00000 1.0000
  Bi  Bi 0.35824 0.66538 0.00000 1.0000
  Bi  Bi 0.35824 0.66538 0.00000 1.0000
  Bi  Bi 0.39968 0.68610 0.36895 1.0000
  Bi  Bi 0.39968 0.68610 0.36895 1.0000
  Bi  Bi 0.38768 0.66829 0.63104 1.0000
  Bi  Bi 0.38768 0.66829 0.63104 1.0000
  Bi  Bi 0.38187 0.66538 0.00000 1.0000
  Bi  Bi 0.38187 0.66538 0.00000 1.0000
  Bi  Bi 0.38187 0.66538 0.00000 1.0000
  Bi  Bi 0.38187 0.66538 0.00000 1.0000
  Bi  Bi 0.42331 0.68610 0.36895 1.0000
  Bi  Bi 0.42331 0.68610 0.36895 1.0000
  Bi  Bi 0.41131 0.66829 0.63104 1.0000
  Bi  Bi 0.41131 0.66829 0.63104 1.0000
  Bi  Bi 0.40550 0.66538 0.00000 1.0000
  Bi  Bi 0.40550 0.66538 0.00000 1.0000
  Bi  Bi 0.40550 0.66538 0.00000 1.0000
  Bi  Bi 0.40550 0.66538 0.00000 1.0000
  Bi  Bi 0.44694 0.68610 0.36895 1.0000
  Bi  Bi 0.44694 0.68610 0.36895 1.0000
  Bi  Bi 0.43493 0.66829 0.63104 1.0000
  Bi  Bi 0.43493 0.66829 0.63104 1.0000
  Bi  Bi 0.42912 0.66538 0.00000 1.0000
  Bi  Bi 0.42912 0.66538 0.00000 1.0000
  Bi  Bi 0.42912 0.66538 0.00000 1.0000
  Bi  Bi 0.42912 0.66538 0.00000 1.0000
  Bi  Bi 0.47056 0.68610 0.36895 1.0000
  Bi  Bi 0.47056 0.68610 0.36895 1.0000
  Bi  Bi 0.45856 0.66829 0.63104 1.0000
  Bi  Bi 0.45856 0.66829 0.63104 1.0000
  Bi  Bi 0.45275 0.66538 0.00000 1.0000
  Bi  Bi 0.45275 0.66538 0.00000 1.0000
  Bi  Bi 0.45275 0.66538 0.00000 1.0000
  Bi  Bi 0.45275 0.66538 0.00000 1.0000
  Bi  Bi 0.49419 0.68610 0.36895 1.0000
  Bi  Bi 0.49419 0.68610 0.36895 1.0000
  Bi  Bi 0.48219 0.66829 0.63104 1.0000
  Bi  Bi 0.48219 0.66829 0.63104 1.0000
  Bi  Bi 0.47637 0.66538 0.00000 1.0000
  Bi  Bi 0.47637 0.66538 0.00000 1.0000
  Bi  Bi 0.47637 0.66538 0.00000 1.0000
  Bi  Bi 0.47637 0.66538 0.00000 1.0000
  Bi  Bi 0.51781 0.68610 0.36895 1.0000
  Bi  Bi 0.51781 0.68610 0.36895 1.0000
  Bi  Bi 0.50581 0.66829 0.63104 1.0000
  Bi  Bi 0.50581 0.66829 0.63104 1.0000
  Bi  Bi 0.50000 0.66538 0.00000 1.0000
  Bi  Bi 0.50000 0.66538 0.00000 1.0000
  Bi  Bi 0.50000 0.66538 0.00000 1.0000
  Bi  Bi 0.50000 0.66538 0.00000 1.0000
  Bi  Bi 0.54144 0.68610 0.36895 1.0000
  Bi  Bi 0.54144 0.68610 0.36895 1.0000
  Bi  Bi 0.52944 0.66829 0.63104 1.0000
  Bi  Bi 0.52944 0.66829 0.63104 1.0000
  Bi  Bi 0.52363 0.66538 0.00000 1.0000
  Bi  Bi 0.52363 0.66538 0.00000 1.0000
  Bi  Bi 0.52363 0.66538 0.00000 1.0000
  Bi  Bi 0.52363 0.66538 0.00000 1.0000
  Bi  Bi 0.56507 0.68610 0.36895 1.0000
  Bi  Bi 0.56507 0.68610 0.36895 1.0000
  Bi  Bi 0.55306 0.66829 0.63104 1.0000
  Bi  Bi 0.55306 0.66829 0.63104 1.0000
  Bi  Bi 0.54725 0.66538 0.00000 1.0000
  Bi  Bi 0.54725 0.66538 0.00000 1.0000
  Bi  Bi 0.54725 0.66538 0.00000 1.0000
  Bi  Bi 0.54725 0.66538 0.00000 1.0000
  Bi  Bi 0.58869 0.68610 0.36895 1.0000
  Bi  Bi 0.58869 0.68610 0.36895 1.0000
  Bi  Bi 0.57669 0.66829 0.63104 1.0000
  Bi  Bi 0.57669 0.66829 0.63104 1.0000
  Bi  Bi 0.57088 0.66538 0.00000 1.0000
  Bi  Bi 0.57088 0.66538 0.00000 1.0000
  Bi  Bi 0.57088 0.66538 0.00000 1.0000
  Bi  Bi 0.57088 0.66538 0.00000 1.0000
  Bi  Bi 0.61232 0.68610 0.36895 1.0000
  Bi  Bi 0.61232 0.68610 0.36895 1.0000
  Bi  Bi 0.60032 0.66829 0.63104 1.0000
  Bi  Bi 0.60032 0.66829 0.63104 1.0000
  Bi  Bi 0.59450 0.66538 0.00000 1.0000
  Bi  Bi 0.59450 0.66538 0.00000 1.0000
  Bi  Bi 0.59450 0.66538 0.00000 1.0000
  Bi  Bi 0.59450 0.66538 0.00000 1.0000
  Bi  Bi 0.63594 0.68610 0.36895 1.0000
  Bi  Bi 0.63594 0.68610 0.36895 1.0000
  Bi  Bi 0.62394 0.66829 0.63104 1.0000
  Bi  Bi 0.62394 0.66829 0.63104 1.0000
  Bi  Bi 0.61813 0.66538 0.00000 1.0000
  Bi  Bi 0.61813 0.66538 0.00000 1.0000
  Bi  Bi 0.61813 0.66538 0.00000 1.0000
  Bi  Bi 0.61813 0.66538 0.00000 1.0000
  Bi  Bi 0.65957 0.68610 0.36895 1.0000
  Bi  Bi 0.65957 0.68610 0.36895 1.0000
  Bi  Bi 0.64757 0.66829 0.63104 1.0000
  Bi  Bi 0.64757 0.66829 0.63104 1.0000
  Bi  Bi 0.64176 0.66538 0.00000 1.0000
  Bi  Bi 0.64176 0.66538 0.00000 1.0000
  Bi  Bi 0.64176 0.66538 0.00000 1.0000
  Bi  Bi 0.64176 0.66538 0.00000 1.0000
  Bi  Bi 0.68320 0.68610 0.36895 1.0000
  Bi  Bi 0.68320 0.68610 0.36895 1.0000
  Bi  Bi 0.67119 0.66829 0.63104 1.0000
  Bi  Bi 0.67119 0.66829 0.63104 1.0000
  Bi  Bi 0.66538 0.66538 0.00000 1.0000
  Bi  Bi 0.66538 0.66538 0.00000 1.0000
  Bi  Bi 0.66538 0.66538 0.00000 1.0000
  Bi  Bi 0.66538 0.66538 0.00000 1.0000
  Bi  Bi 0.70682 0.68610 0.36895 1.0000
  Bi  Bi 0.70682 0.68610 0.36895 1.0000
  Bi  Bi 0.69482 0.66829 0.63104 1.0000
  Bi  Bi 0.69482 0.66829 0.63104 1.0000
  Bi  Bi 0.68901 0.66538 0.00000 1.0000
  Bi  Bi 0.68901 0.66538 0.00000 1.0000
  Bi  Bi 0.68901 0.66538 0.00000 1.0000
  Bi  Bi 0.68901 0.66538 0.00000 1.0000
  Bi  Bi 0.73045 0.68610 0.36895 1.0000
  Bi  Bi 0.73045 0.68610 0.36895 1.0000
  Bi  Bi 0.71844 0.66829 0.63104 1.0000
  Bi  Bi 0.71844 0.66829 0.63104 1.0000
  Bi  Bi 0.71263 0.66538 0.00000 1.0000
  Bi  Bi 0.71263 0.66538 0.00000 1.0000
  Bi  Bi 0.71263 0.66538 0.00000 1.0000
  Bi  Bi 0.71263 0.66538 0.00000 1.0000
  Bi  Bi 0.75407 0.68610 0.36895 1.0000
  Bi  Bi 0.75407 0.68610 0.36895 1.0000
  Bi  Bi 0.74207 0.66829 0.63104 1.0000
  Bi  Bi 0.74207 0.66829 0.63104 1.0000
  Bi  Bi 0.73626 0.66538 0.00000 1.0000
  Bi  Bi 0.73626 0.66538 0.00000 1.0000
  Bi  Bi 0.73626 0.66538 0.00000 1.0000
  Bi  Bi 0.73626 0.66538 0.00000 1.0000
  Bi  Bi 0.77770 0.68610 0.36895 1.0000
  Bi  Bi 0.77770 0.68610 0.36895 1.0000
  Bi  Bi 0.76570 0.66829 0.63104 1.0000
  Bi  Bi 0.76570 0.66829 0.63104 1.0000
  Bi  Bi 0.75989 0.66538 0.00000 1.0000
  Bi  Bi 0.75989 0.66538 0.00000 1.0000
  Bi  Bi 0.75989 0.66538 0.00000 1.0000
  Bi  Bi 0.75989 0.66538 0.00000 1.0000
  Bi  Bi 0.80133 0.68610 0.36895 1.0000
  Bi  Bi 0.80133 0.68610 0.36895 1.0000
  Bi  Bi 0.78932 0.66829 0.63104 1.0000
  Bi  Bi 0.78932 0.66829 0.63104 1.0000
  Bi  Bi 0.78351 0.66538 0.00000 1.0000
  Bi  Bi 0.78351 0.66538 0.00000 1.0000
  Bi  Bi 0.78351 0.66538 0.00000 1.0000
  Bi  Bi 0.78351 0.66538 0.00000 1.0000
  Bi  Bi 0.82495 0.68610 0.36895 1.0000
  Bi  Bi 0.82495 0.68610 0.36895 1.0000
  Bi  Bi 0.81295 0.66829 0.63104 1.0000
  Bi  Bi 0.81295 0.66829 0.63104 1.0000
  Bi  Bi 0.80714 0.66538 0.00000 1.0000
  Bi  Bi 0.80714 0.66538 0.00000 1.0000
  Bi  Bi 0.80714 0.66538 0.00000 1.0000
  Bi  Bi 0.80714 0.66538 0.00000 1.0000
  Bi  Bi 0.84858 0.68610 0.36895 1.0000
  Bi  Bi 0.84858 0.68610 0.36895 1.0000
  Bi  Bi 0.83657 0.66829 0.63104 1.0000
  Bi  Bi 0.83657 0.66829 0.63104 1.0000
  Bi  Bi 0.83076 0.66538 0.00000 1.0000
  Bi  Bi 0.83076 0.66538 0.00000 1.0000
  Bi  Bi 0.83076 0.66538 0.00000 1.0000
  Bi  Bi 0.83076 0.66538 0.00000 1.0000
  Bi  Bi 0.87220 0.68610 0.36895 1.0000
  Bi  Bi 0.87220 0.68610 0.36895 1.0000
  Bi  Bi 0.86020 0.66829 0.63104 1.0000
  Bi  Bi 0.86020 0.66829 0.63104 1.0000
  Bi  Bi 0.85439 0.66538 0.00000 1.0000
  Bi  Bi 0.85439 0.66538 0.00000 1.0000
  Bi  Bi 0.85439 0.66538 0.00000 1.0000
  Bi  Bi 0.85439 0.66538 0.00000 1.0000
  Bi  Bi 0.89583 0.68610 0.36895 1.0000
  Bi  Bi 0.89583 0.68610 0.36895 1.0000
  Bi  Bi 0.88383 0.66829 0.63104 1.0000
  Bi  Bi 0.88383 0.66829 0.63104 1.0000
  Bi  Bi 0.87802 0.66538 0.00000 1.0000
  Bi  Bi 0.87802 0.66538 0.00000 1.0000
  Bi  Bi 0.87802 0.66538 0.00000 1.0000
  Bi  Bi 0.87802 0.66538 0.00000 1.0000
  Bi  Bi 0.91946 0.68610 0.36895 1.0000
  Bi  Bi 0.91946 0.68610 0.36895 1.0000
  Bi  Bi 0.90745 0.66829 0.63104 1.0000
  Bi  Bi 0.90745 0.66829 0.63104 1.0000
  Bi  Bi 0.90164 0.66538 0.00000 1.0000
  Bi  Bi 0.90164 0.66538 0.00000 1.0000
  Bi  Bi 0.90164 0.66538 0.00000 1.0000
  Bi  Bi 0.90164 0.66538 0.00000 1.0000
  Bi  Bi 0.94308 0.68610 0.36895 1.0000
  Bi  Bi 0.94308 0.68610 0.36895 1.0000
  Bi  Bi 0.93108 0.66829 0.63104 1.0000
  Bi  Bi 0.93108 0.66829 0.63104 1.0000
  Bi  Bi 0.92527 0.66538 0.00000 1.0000
  Bi  Bi 0.92527 0.66538 0.00000 1.0000
  Bi  Bi 0.92527 0.66538 0.00000 1.0000
  Bi  Bi 0.92527 0.66538 0.00000 1.0000
  Bi  Bi 0.96671 0.68610 0.36895 1.0000
  Bi  Bi 0.96671 0.68610 0.36895 1.0000
  Bi  Bi 0.95470 0.66829 0.63104 1.0000
  Bi  Bi 0.95470 0.66829 0.63104 1.0000
  Bi  Bi 0.94889 0.66538 0.00000 1.0000
  Bi  Bi 0.94889 0.66538 0.00000 1.0000
  Bi  Bi 0.94889 0.66538 0.00000 1.0000
  Bi  Bi 0.94889 0.66538 0.00000 1.0000
  Bi  Bi 0.04530 0.70973 0.36895 1.0000
  Bi  Bi 0.04530 0.70973 0.36895 1.0000
  Bi  Bi 0.03329 0.69191 0.63104 1.0000
  Bi  Bi 0.03329 0.69191 0.63104 1.0000
  Bi  Bi 0.02748 0.68901 0.00000 1.0000
  Bi  Bi 0.02748 0.68901 0.00000 1.0000
  Bi  Bi 0.02748 0.68901 0.00000 1.0000
  Bi  Bi 0.02748 0.68901 0.00000 1.0000
  Bi  Bi 0.06892 0.70973 0.36895 1.0000
  Bi  Bi 0.06892 0.70973 0.36895 1.0000
  Bi  Bi 0.05692 0.69191 0.63104 1.0000
  Bi  Bi 0.05692 0.69191 0.63104 1.0000
  Bi  Bi 0.05111 0.68901 0.00000 1.0000
  Bi  Bi 0.05111 0.68901 0.00000 1.0000
  Bi  Bi 0.05111 0.68901 0.00000 1.0000
  Bi  Bi 0.05111 0.68901 0.00000 1.0000
  Bi  Bi 0.09255 0.70973 0.36895 1.0000
  Bi  Bi 0.09255 0.70973 0.36895 1.0000
  Bi  Bi 0.08054 0.69191 0.63104 1.0000
  Bi  Bi 0.08054 0.69191 0.63104 1.0000
  Bi  Bi 0.07473 0.68901 0.00000 1.0000
  Bi  Bi 0.07473 0.68901 0.00000 1.0000
  Bi  Bi 0.07473 0.68901 0.00000 1.0000
  Bi  Bi 0.07473 0.68901 0.00000 1.0000
  Bi  Bi 0.11617 0.70973 0.36895 1.0000
  Bi  Bi 0.11617 0.70973 0.36895 1.0000
  Bi  Bi 0.10417 0.69191 0.63104 1.0000
  Bi  Bi 0.10417 0.69191 0.63104 1.0000
  Bi  Bi 0.09836 0.68901 0.00000 1.0000
  Bi  Bi 0.09836 0.68901 0.00000 1.0000
  Bi  Bi 0.09836 0.68901 0.00000 1.0000
  Bi  Bi 0.09836 0.68901 0.00000 1.0000
  Bi  Bi 0.13980 0.70973 0.36895 1.0000
  Bi  Bi 0.13980 0.70973 0.36895 1.0000
  Bi  Bi 0.12780 0.69191 0.63104 1.0000
  Bi  Bi 0.12780 0.69191 0.63104 1.0000
  Bi  Bi 0.12198 0.68901 0.00000 1.0000
  Bi  Bi 0.12198 0.68901 0.00000 1.0000
  Bi  Bi 0.12198 0.68901 0.00000 1.0000
  Bi  Bi 0.12198 0.68901 0.00000 1.0000
  Bi  Bi 0.16343 0.70973 0.36895 1.0000
  Bi  Bi 0.16343 0.70973 0.36895 1.0000
  Bi  Bi 0.15142 0.69191 0.63104 1.0000
  Bi  Bi 0.15142 0.69191 0.63104 1.0000
  Bi  Bi 0.14561 0.68901 0.00000 1.0000
  Bi  Bi 0.14561 0.68901 0.00000 1.0000
  Bi  Bi 0.14561 0.68901 0.00000 1.0000
  Bi  Bi 0.14561 0.68901 0.00000 1.0000
  Bi  Bi 0.18705 0.70973 0.36895 1.0000
  Bi  Bi 0.18705 0.70973 0.36895 1.0000
  Bi  Bi 0.17505 0.69191 0.63104 1.0000
  Bi  Bi 0.17505 0.69191 0.63104 1.0000
  Bi  Bi 0.16924 0.68901 0.00000 1.0000
  Bi  Bi 0.16924 0.68901 0.00000 1.0000
  Bi  Bi 0.16924 0.68901 0.00000 1.0000
  Bi  Bi 0.16924 0.68901 0.00000 1.0000
  Bi  Bi 0.21068 0.70973 0.36895 1.0000
  Bi  Bi 0.21068 0.70973 0.36895 1.0000
  Bi  Bi 0.19867 0.69191 0.63104 1.0000
  Bi  Bi 0.19867 0.69191 0.63104 1.0000
  Bi  Bi 0.19286 0.68901 0.00000 1.0000
  Bi  Bi 0.19286 0.68901 0.00000 1.0000
  Bi  Bi 0.19286 0.68901 0.00000 1.0000
  Bi  Bi 0.19286 0.68901 0.00000 1.0000
  Bi  Bi 0.23430 0.70973 0.36895 1.0000
  Bi  Bi 0.23430 0.70973 0.36895 1.0000
  Bi  Bi 0.22230 0.69191 0.63104 1.0000
  Bi  Bi 0.22230 0.69191 0.63104 1.0000
  Bi  Bi 0.21649 0.68901 0.00000 1.0000
  Bi  Bi 0.21649 0.68901 0.00000 1.0000
  Bi  Bi 0.21649 0.68901 0.00000 1.0000
  Bi  Bi 0.21649 0.68901 0.00000 1.0000
  Bi  Bi 0.25793 0.70973 0.36895 1.0000
  Bi  Bi 0.25793 0.70973 0.36895 1.0000
  Bi  Bi 0.24593 0.69191 0.63104 1.0000
  Bi  Bi 0.24593 0.69191 0.63104 1.0000
  Bi  Bi 0.24011 0.68901 0.00000 1.0000
  Bi  Bi 0.24011 0.68901 0.00000 1.0000
  Bi  Bi 0.24011 0.68901 0.00000 1.0000
  Bi  Bi 0.24011 0.68901 0.00000 1.0000
  Bi  Bi 0.28156 0.70973 0.36895 1.0000
  Bi  Bi 0.28156 0.70973 0.36895 1.0000
  Bi  Bi 0.26955 0.69191 0.63104 1.0000
  Bi  Bi 0.26955 0.69191 0.63104 1.0000
  Bi  Bi 0.26374 0.68901 0.00000 1.0000
  Bi  Bi 0.26374 0.68901 0.00000 1.0000
  Bi  Bi 0.26374 0.68901 0.00000 1.0000
  Bi  Bi 0.26374 0.68901 0.00000 1.0000
  Bi  Bi 0.30518 0.70973 0.36895 1.0000
  Bi  Bi 0.30518 0.70973 0.36895 1.0000
  Bi  Bi 0.29318 0.69191 0.63104 1.0000
  Bi  Bi 0.29318 0.69191 0.63104 1.0000
  Bi  Bi 0.28737 0.68901 0.00000 1.0000
  Bi  Bi 0.28737 0.68901 0.00000 1.0000
  Bi  Bi 0.28737 0.68901 0.00000 1.0000
  Bi  Bi 0.28737 0.68901 0.00000 1.0000
  Bi  Bi 0.32881 0.70973 0.36895 1.0000
  Bi  Bi 0.32881 0.70973 0.36895 1.0000
  Bi  Bi 0.31680 0.69191 0.63104 1.0000
  Bi  Bi 0.31680 0.69191 0.63104 1.0000
  Bi  Bi 0.31099 0.68901 0.00000 1.0000
  Bi  Bi 0.31099 0.68901 0.00000 1.0000
  Bi  Bi 0.31099 0.68901 0.00000 1.0000
  Bi  Bi 0.31099 0.68901 0.00000 1.0000
  Bi  Bi 0.35243 0.70973 0.36895 1.0000
  Bi  Bi 0.35243 0.70973 0.36895 1.0000
  Bi  Bi 0.34043 0.69191 0.63104 1.0000
  Bi  Bi 0.34043 0.69191 0.63104 1.0000
  Bi  Bi 0.33462 0.68901 0.00000 1.0000
  Bi  Bi 0.33462 0.68901 0.00000 1.0000
  Bi  Bi 0.33462 0.68901 0.00000 1.0000
  Bi  Bi 0.33462 0.68901 0.00000 1.0000
  Bi  Bi 0.37606 0.70973 0.36895 1.0000
  Bi  Bi 0.37606 0.70973 0.36895 1.0000
  Bi  Bi 0.36406 0.69191 0.63104 1.0000
  Bi  Bi 0.36406 0.69191 0.63104 1.0000
  Bi  Bi 0.35824 0.68901 0.00000 1.0000
  Bi  Bi 0.35824 0.68901 0.00000 1.0000
  Bi  Bi 0.35824 0.68901 0.00000 1.0000
  Bi  Bi 0.35824 0.68901 0.00000 1.0000
  Bi  Bi 0.39968 0.70973 0.36895 1.0000
  Bi  Bi 0.39968 0.70973 0.36895 1.0000
  Bi  Bi 0.38768 0.69191 0.63104 1.0000
  Bi  Bi 0.38768 0.69191 0.63104 1.0000
  Bi  Bi 0.38187 0.68901 0.00000 1.0000
  Bi  Bi 0.38187 0.68901 0.00000 1.0000
  Bi  Bi 0.38187 0.68901 0.00000 1.0000
  Bi  Bi 0.38187 0.68901 0.00000 1.0000
  Bi  Bi 0.42331 0.70973 0.36895 1.0000
  Bi  Bi 0.42331 0.70973 0.36895 1.0000
  Bi  Bi 0.41131 0.69191 0.63104 1.0000
  Bi  Bi 0.41131 0.69191 0.63104 1.0000
  Bi  Bi 0.40550 0.68901 0.00000 1.0000
  Bi  Bi 0.40550 0.68901 0.00000 1.0000
  Bi  Bi 0.40550 0.68901 0.00000 1.0000
  Bi  Bi 0.40550 0.68901 0.00000 1.0000
  Bi  Bi 0.44694 0.70973 0.36895 1.0000
  Bi  Bi 0.44694 0.70973 0.36895 1.0000
  Bi  Bi 0.43493 0.69191 0.63104 1.0000
  Bi  Bi 0.43493 0.69191 0.63104 1.0000
  Bi  Bi 0.42912 0.68901 0.00000 1.0000
  Bi  Bi 0.42912 0.68901 0.00000 1.0000
  Bi  Bi 0.42912 0.68901 0.00000 1.0000
  Bi  Bi 0.42912 0.68901 0.00000 1.0000
  Bi  Bi 0.47056 0.70973 0.36895 1.0000
  Bi  Bi 0.47056 0.70973 0.36895 1.0000
  Bi  Bi 0.45856 0.69191 0.63104 1.0000
  Bi  Bi 0.45856 0.69191 0.63104 1.0000
  Bi  Bi 0.45275 0.68901 0.00000 1.0000
  Bi  Bi 0.45275 0.68901 0.00000 1.0000
  Bi  Bi 0.45275 0.68901 0.00000 1.0000
  Bi  Bi 0.45275 0.68901 0.00000 1.0000
  Bi  Bi 0.49419 0.70973 0.36895 1.0000
  Bi  Bi 0.49419 0.70973 0.36895 1.0000
  Bi  Bi 0.48219 0.69191 0.63104 1.0000
  Bi  Bi 0.48219 0.69191 0.63104 1.0000
  Bi  Bi 0.47637 0.68901 0.00000 1.0000
  Bi  Bi 0.47637 0.68901 0.00000 1.0000
  Bi  Bi 0.47637 0.68901 0.00000 1.0000
  Bi  Bi 0.47637 0.68901 0.00000 1.0000
  Bi  Bi 0.51781 0.70973 0.36895 1.0000
  Bi  Bi 0.51781 0.70973 0.36895 1.0000
  Bi  Bi 0.50581 0.69191 0.63104 1.0000
  Bi  Bi 0.50581 0.69191 0.63104 1.0000
  Bi  Bi 0.50000 0.68901 0.00000 1.0000
  Bi  Bi 0.50000 0.68901 0.00000 1.0000
  Bi  Bi 0.50000 0.68901 0.00000 1.0000
  Bi  Bi 0.50000 0.68901 0.00000 1.0000
  Bi  Bi 0.54144 0.70973 0.36895 1.0000
  Bi  Bi 0.54144 0.70973 0.36895 1.0000
  Bi  Bi 0.52944 0.69191 0.63104 1.0000
  Bi  Bi 0.52944 0.69191 0.63104 1.0000
  Bi  Bi 0.52363 0.68901 0.00000 1.0000
  Bi  Bi 0.52363 0.68901 0.00000 1.0000
  Bi  Bi 0.52363 0.68901 0.00000 1.0000
  Bi  Bi 0.52363 0.68901 0.00000 1.0000
  Bi  Bi 0.56507 0.70973 0.36895 1.0000
  Bi  Bi 0.56507 0.70973 0.36895 1.0000
  Bi  Bi 0.55306 0.69191 0.63104 1.0000
  Bi  Bi 0.55306 0.69191 0.63104 1.0000
  Bi  Bi 0.54725 0.68901 0.00000 1.0000
  Bi  Bi 0.54725 0.68901 0.00000 1.0000
  Bi  Bi 0.54725 0.68901 0.00000 1.0000
  Bi  Bi 0.54725 0.68901 0.00000 1.0000
  Bi  Bi 0.58869 0.70973 0.36895 1.0000
  Bi  Bi 0.58869 0.70973 0.36895 1.0000
  Bi  Bi 0.57669 0.69191 0.63104 1.0000
  Bi  Bi 0.57669 0.69191 0.63104 1.0000
  Bi  Bi 0.57088 0.68901 0.00000 1.0000
  Bi  Bi 0.57088 0.68901 0.00000 1.0000
  Bi  Bi 0.57088 0.68901 0.00000 1.0000
  Bi  Bi 0.57088 0.68901 0.00000 1.0000
  Bi  Bi 0.61232 0.70973 0.36895 1.0000
  Bi  Bi 0.61232 0.70973 0.36895 1.0000
  Bi  Bi 0.60032 0.69191 0.63104 1.0000
  Bi  Bi 0.60032 0.69191 0.63104 1.0000
  Bi  Bi 0.59450 0.68901 0.00000 1.0000
  Bi  Bi 0.59450 0.68901 0.00000 1.0000
  Bi  Bi 0.59450 0.68901 0.00000 1.0000
  Bi  Bi 0.59450 0.68901 0.00000 1.0000
  Bi  Bi 0.63594 0.70973 0.36895 1.0000
  Bi  Bi 0.63594 0.70973 0.36895 1.0000
  Bi  Bi 0.62394 0.69191 0.63104 1.0000
  Bi  Bi 0.62394 0.69191 0.63104 1.0000
  Bi  Bi 0.61813 0.68901 0.00000 1.0000
  Bi  Bi 0.61813 0.68901 0.00000 1.0000
  Bi  Bi 0.61813 0.68901 0.00000 1.0000
  Bi  Bi 0.61813 0.68901 0.00000 1.0000
  Bi  Bi 0.65957 0.70973 0.36895 1.0000
  Bi  Bi 0.65957 0.70973 0.36895 1.0000
  Bi  Bi 0.64757 0.69191 0.63104 1.0000
  Bi  Bi 0.64757 0.69191 0.63104 1.0000
  Bi  Bi 0.64176 0.68901 0.00000 1.0000
  Bi  Bi 0.64176 0.68901 0.00000 1.0000
  Bi  Bi 0.64176 0.68901 0.00000 1.0000
  Bi  Bi 0.64176 0.68901 0.00000 1.0000
  Bi  Bi 0.68320 0.70973 0.36895 1.0000
  Bi  Bi 0.68320 0.70973 0.36895 1.0000
  Bi  Bi 0.67119 0.69191 0.63104 1.0000
  Bi  Bi 0.67119 0.69191 0.63104 1.0000
  Bi  Bi 0.66538 0.68901 0.00000 1.0000
  Bi  Bi 0.66538 0.68901 0.00000 1.0000
  Bi  Bi 0.66538 0.68901 0.00000 1.0000
  Bi  Bi 0.66538 0.68901 0.00000 1.0000
  Bi  Bi 0.70682 0.70973 0.36895 1.0000
  Bi  Bi 0.70682 0.70973 0.36895 1.0000
  Bi  Bi 0.69482 0.69191 0.63104 1.0000
  Bi  Bi 0.69482 0.69191 0.63104 1.0000
  Bi  Bi 0.68901 0.68901 0.00000 1.0000
  Bi  Bi 0.68901 0.68901 0.00000 1.0000
  Bi  Bi 0.68901 0.68901 0.00000 1.0000
  Bi  Bi 0.68901 0.68901 0.00000 1.0000
  Bi  Bi 0.73045 0.70973 0.36895 1.0000
  Bi  Bi 0.73045 0.70973 0.36895 1.0000
  Bi  Bi 0.71844 0.69191 0.63104 1.0000
  Bi  Bi 0.71844 0.69191 0.63104 1.0000
  Bi  Bi 0.71263 0.68901 0.00000 1.0000
  Bi  Bi 0.71263 0.68901 0.00000 1.0000
  Bi  Bi 0.71263 0.68901 0.00000 1.0000
  Bi  Bi 0.71263 0.68901 0.00000 1.0000
  Bi  Bi 0.75407 0.70973 0.36895 1.0000
  Bi  Bi 0.75407 0.70973 0.36895 1.0000
  Bi  Bi 0.74207 0.69191 0.63104 1.0000
  Bi  Bi 0.74207 0.69191 0.63104 1.0000
  Bi  Bi 0.73626 0.68901 0.00000 1.0000
  Bi  Bi 0.73626 0.68901 0.00000 1.0000
  Bi  Bi 0.73626 0.68901 0.00000 1.0000
  Bi  Bi 0.73626 0.68901 0.00000 1.0000
  Bi  Bi 0.77770 0.70973 0.36895 1.0000
  Bi  Bi 0.77770 0.70973 0.36895 1.0000
  Bi  Bi 0.76570 0.69191 0.63104 1.0000
  Bi  Bi 0.76570 0.69191 0.63104 1.0000
  Bi  Bi 0.75989 0.68901 0.00000 1.0000
  Bi  Bi 0.75989 0.68901 0.00000 1.0000
  Bi  Bi 0.75989 0.68901 0.00000 1.0000
  Bi  Bi 0.75989 0.68901 0.00000 1.0000
  Bi  Bi 0.80133 0.70973 0.36895 1.0000
  Bi  Bi 0.80133 0.70973 0.36895 1.0000
  Bi  Bi 0.78932 0.69191 0.63104 1.0000
  Bi  Bi 0.78932 0.69191 0.63104 1.0000
  Bi  Bi 0.78351 0.68901 0.00000 1.0000
  Bi  Bi 0.78351 0.68901 0.00000 1.0000
  Bi  Bi 0.78351 0.68901 0.00000 1.0000
  Bi  Bi 0.78351 0.68901 0.00000 1.0000
  Bi  Bi 0.82495 0.70973 0.36895 1.0000
  Bi  Bi 0.82495 0.70973 0.36895 1.0000
  Bi  Bi 0.81295 0.69191 0.63104 1.0000
  Bi  Bi 0.81295 0.69191 0.63104 1.0000
  Bi  Bi 0.80714 0.68901 0.00000 1.0000
  Bi  Bi 0.80714 0.68901 0.00000 1.0000
  Bi  Bi 0.80714 0.68901 0.00000 1.0000
  Bi  Bi 0.80714 0.68901 0.00000 1.0000
  Bi  Bi 0.84858 0.70973 0.36895 1.0000
  Bi  Bi 0.84858 0.70973 0.36895 1.0000
  Bi  Bi 0.83657 0.69191 0.63104 1.0000
  Bi  Bi 0.83657 0.69191 0.63104 1.0000
  Bi  Bi 0.83076 0.68901 0.00000 1.0000
  Bi  Bi 0.83076 0.68901 0.00000 1.0000
  Bi  Bi 0.83076 0.68901 0.00000 1.0000
  Bi  Bi 0.83076 0.68901 0.00000 1.0000
  Bi  Bi 0.87220 0.70973 0.36895 1.0000
  Bi  Bi 0.87220 0.70973 0.36895 1.0000
  Bi  Bi 0.86020 0.69191 0.63104 1.0000
  Bi  Bi 0.86020 0.69191 0.63104 1.0000
  Bi  Bi 0.85439 0.68901 0.00000 1.0000
  Bi  Bi 0.85439 0.68901 0.00000 1.0000
  Bi  Bi 0.85439 0.68901 0.00000 1.0000
  Bi  Bi 0.85439 0.68901 0.00000 1.0000
  Bi  Bi 0.89583 0.70973 0.36895 1.0000
  Bi  Bi 0.89583 0.70973 0.36895 1.0000
  Bi  Bi 0.88383 0.69191 0.63104 1.0000
  Bi  Bi 0.88383 0.69191 0.63104 1.0000
  Bi  Bi 0.87802 0.68901 0.00000 1.0000
  Bi  Bi 0.87802 0.68901 0.00000 1.0000
  Bi  Bi 0.87802 0.68901 0.00000 1.0000
  Bi  Bi 0.87802 0.68901 0.00000 1.0000
  Bi  Bi 0.91946 0.70973 0.36895 1.0000
  Bi  Bi 0.91946 0.70973 0.36895 1.0000
  Bi  Bi 0.90745 0.69191 0.63104 1.0000
  Bi  Bi 0.90745 0.69191 0.63104 1.0000
  Bi  Bi 0.90164 0.68901 0.00000 1.0000
  Bi  Bi 0.90164 0.68901 0.00000 1.0000
  Mo  Mo 0.90164 0.68901 0.00000 1.0000
  Bi  Bi 0.90164 0.68901 0.00000 1.0000
  Bi  Bi 0.94308 0.70973 0.36895 1.0000
  Bi  Bi 0.94308 0.70973 0.36895 1.0000
  Bi  Bi 0.93108 0.69191 0.63104 1.0000
  Bi  Bi 0.93108 0.69191 0.63104 1.0000
  Bi  Bi 0.92527 0.68901 0.00000 1.0000
  Bi  Bi 0.92527 0.68901 0.00000 1.0000
  Bi  Bi 0.92527 0.68901 0.00000 1.0000
  Bi  Bi 0.92527 0.68901 0.00000 1.0000
  Bi  Bi 0.96671 0.70973 0.36895 1.0000
  Bi  Bi 0.96671 0.70973 0.36895 1.0000
  Bi  Bi 0.95470 0.69191 0.63104 1.0000
  Bi  Bi 0.95470 0.69191 0.63104 1.0000
  Bi  Bi 0.94889 0.68901 0.00000 1.0000
  Bi  Bi 0.94889 0.68901 0.00000 1.0000
  Bi  Bi 0.94889 0.68901 0.00000 1.0000
  Bi  Bi 0.94889 0.68901 0.00000 1.0000
  Bi  Bi 0.04530 0.73335 0.36895 1.0000
  Bi  Bi 0.04530 0.73335 0.36895 1.0000
  Bi  Bi 0.03329 0.71554 0.63104 1.0000
  Bi  Bi 0.03329 0.71554 0.63104 1.0000
  Bi  Bi 0.02748 0.71263 0.00000 1.0000
  Bi  Bi 0.02748 0.71263 0.00000 1.0000
  Bi  Bi 0.02748 0.71263 0.00000 1.0000
  Bi  Bi 0.02748 0.71263 0.00000 1.0000
  Bi  Bi 0.06892 0.73335 0.36895 1.0000
  Bi  Bi 0.06892 0.73335 0.36895 1.0000
  Bi  Bi 0.05692 0.71554 0.63104 1.0000
  Bi  Bi 0.05692 0.71554 0.63104 1.0000
  Bi  Bi 0.05111 0.71263 0.00000 1.0000
  Bi  Bi 0.05111 0.71263 0.00000 1.0000
  Bi  Bi 0.05111 0.71263 0.00000 1.0000
  Bi  Bi 0.05111 0.71263 0.00000 1.0000
  Bi  Bi 0.09255 0.73335 0.36895 1.0000
  Bi  Bi 0.09255 0.73335 0.36895 1.0000
  Bi  Bi 0.08054 0.71554 0.63104 1.0000
  Bi  Bi 0.08054 0.71554 0.63104 1.0000
  Bi  Bi 0.07473 0.71263 0.00000 1.0000
  Bi  Bi 0.07473 0.71263 0.00000 1.0000
  Bi  Bi 0.07473 0.71263 0.00000 1.0000
  Bi  Bi 0.07473 0.71263 0.00000 1.0000
  Bi  Bi 0.11617 0.73335 0.36895 1.0000
  Bi  Bi 0.11617 0.73335 0.36895 1.0000
  Bi  Bi 0.10417 0.71554 0.63104 1.0000
  Bi  Bi 0.10417 0.71554 0.63104 1.0000
  Bi  Bi 0.09836 0.71263 0.00000 1.0000
  Bi  Bi 0.09836 0.71263 0.00000 1.0000
  Bi  Bi 0.09836 0.71263 0.00000 1.0000
  Bi  Bi 0.09836 0.71263 0.00000 1.0000
  Bi  Bi 0.13980 0.73335 0.36895 1.0000
  Bi  Bi 0.13980 0.73335 0.36895 1.0000
  Bi  Bi 0.12780 0.71554 0.63104 1.0000
  Bi  Bi 0.12780 0.71554 0.63104 1.0000
  Bi  Bi 0.12198 0.71263 0.00000 1.0000
  Bi  Bi 0.12198 0.71263 0.00000 1.0000
  Bi  Bi 0.12198 0.71263 0.00000 1.0000
  Bi  Bi 0.12198 0.71263 0.00000 1.0000
  Bi  Bi 0.16343 0.73335 0.36895 1.0000
  Bi  Bi 0.16343 0.73335 0.36895 1.0000
  Bi  Bi 0.15142 0.71554 0.63104 1.0000
  Bi  Bi 0.15142 0.71554 0.63104 1.0000
  Bi  Bi 0.14561 0.71263 0.00000 1.0000
  Bi  Bi 0.14561 0.71263 0.00000 1.0000
  Bi  Bi 0.14561 0.71263 0.00000 1.0000
  Bi  Bi 0.14561 0.71263 0.00000 1.0000
  Bi  Bi 0.18705 0.73335 0.36895 1.0000
  Bi  Bi 0.18705 0.73335 0.36895 1.0000
  Bi  Bi 0.17505 0.71554 0.63104 1.0000
  Bi  Bi 0.17505 0.71554 0.63104 1.0000
  Bi  Bi 0.16924 0.71263 0.00000 1.0000
  Bi  Bi 0.16924 0.71263 0.00000 1.0000
  Bi  Bi 0.16924 0.71263 0.00000 1.0000
  Bi  Bi 0.16924 0.71263 0.00000 1.0000
  Bi  Bi 0.21068 0.73335 0.36895 1.0000
  Bi  Bi 0.21068 0.73335 0.36895 1.0000
  Bi  Bi 0.19867 0.71554 0.63104 1.0000
  Bi  Bi 0.19867 0.71554 0.63104 1.0000
  Bi  Bi 0.19286 0.71263 0.00000 1.0000
  Bi  Bi 0.19286 0.71263 0.00000 1.0000
  Bi  Bi 0.19286 0.71263 0.00000 1.0000
  Bi  Bi 0.19286 0.71263 0.00000 1.0000
  Bi  Bi 0.23430 0.73335 0.36895 1.0000
  Bi  Bi 0.23430 0.73335 0.36895 1.0000
  Bi  Bi 0.22230 0.71554 0.63104 1.0000
  Bi  Bi 0.22230 0.71554 0.63104 1.0000
  Bi  Bi 0.21649 0.71263 0.00000 1.0000
  Bi  Bi 0.21649 0.71263 0.00000 1.0000
  Bi  Bi 0.21649 0.71263 0.00000 1.0000
  Bi  Bi 0.21649 0.71263 0.00000 1.0000
  Bi  Bi 0.25793 0.73335 0.36895 1.0000
  Bi  Bi 0.25793 0.73335 0.36895 1.0000
  Bi  Bi 0.24593 0.71554 0.63104 1.0000
  Bi  Bi 0.24593 0.71554 0.63104 1.0000
  Bi  Bi 0.24011 0.71263 0.00000 1.0000
  Bi  Bi 0.24011 0.71263 0.00000 1.0000
  Bi  Bi 0.24011 0.71263 0.00000 1.0000
  Bi  Bi 0.24011 0.71263 0.00000 1.0000
  Bi  Bi 0.28156 0.73335 0.36895 1.0000
  Bi  Bi 0.28156 0.73335 0.36895 1.0000
  Bi  Bi 0.26955 0.71554 0.63104 1.0000
  Bi  Bi 0.26955 0.71554 0.63104 1.0000
  Bi  Bi 0.26374 0.71263 0.00000 1.0000
  Bi  Bi 0.26374 0.71263 0.00000 1.0000
  Bi  Bi 0.26374 0.71263 0.00000 1.0000
  Bi  Bi 0.26374 0.71263 0.00000 1.0000
  Bi  Bi 0.30518 0.73335 0.36895 1.0000
  Bi  Bi 0.30518 0.73335 0.36895 1.0000
  Bi  Bi 0.29318 0.71554 0.63104 1.0000
  Bi  Bi 0.29318 0.71554 0.63104 1.0000
  Bi  Bi 0.28737 0.71263 0.00000 1.0000
  Bi  Bi 0.28737 0.71263 0.00000 1.0000
  Bi  Bi 0.28737 0.71263 0.00000 1.0000
  Bi  Bi 0.28737 0.71263 0.00000 1.0000
  Bi  Bi 0.32881 0.73335 0.36895 1.0000
  Bi  Bi 0.32881 0.73335 0.36895 1.0000
  Bi  Bi 0.31680 0.71554 0.63104 1.0000
  Bi  Bi 0.31680 0.71554 0.63104 1.0000
  Bi  Bi 0.31099 0.71263 0.00000 1.0000
  Bi  Bi 0.31099 0.71263 0.00000 1.0000
  Bi  Bi 0.31099 0.71263 0.00000 1.0000
  Bi  Bi 0.31099 0.71263 0.00000 1.0000
  Bi  Bi 0.35243 0.73335 0.36895 1.0000
  Bi  Bi 0.35243 0.73335 0.36895 1.0000
  Bi  Bi 0.34043 0.71554 0.63104 1.0000
  Bi  Bi 0.34043 0.71554 0.63104 1.0000
  Bi  Bi 0.33462 0.71263 0.00000 1.0000
  Bi  Bi 0.33462 0.71263 0.00000 1.0000
  Bi  Bi 0.33462 0.71263 0.00000 1.0000
  Bi  Bi 0.33462 0.71263 0.00000 1.0000
  Bi  Bi 0.37606 0.73335 0.36895 1.0000
  Bi  Bi 0.37606 0.73335 0.36895 1.0000
  Bi  Bi 0.36406 0.71554 0.63104 1.0000
  Bi  Bi 0.36406 0.71554 0.63104 1.0000
  Bi  Bi 0.35824 0.71263 0.00000 1.0000
  Bi  Bi 0.35824 0.71263 0.00000 1.0000
  Bi  Bi 0.35824 0.71263 0.00000 1.0000
  Bi  Bi 0.35824 0.71263 0.00000 1.0000
  Bi  Bi 0.39968 0.73335 0.36895 1.0000
  Bi  Bi 0.39968 0.73335 0.36895 1.0000
  Bi  Bi 0.38768 0.71554 0.63104 1.0000
  Bi  Bi 0.38768 0.71554 0.63104 1.0000
  Bi  Bi 0.38187 0.71263 0.00000 1.0000
  Bi  Bi 0.38187 0.71263 0.00000 1.0000
  Bi  Bi 0.38187 0.71263 0.00000 1.0000
  Bi  Bi 0.38187 0.71263 0.00000 1.0000
  Bi  Bi 0.42331 0.73335 0.36895 1.0000
  Bi  Bi 0.42331 0.73335 0.36895 1.0000
  Bi  Bi 0.41131 0.71554 0.63104 1.0000
  Bi  Bi 0.41131 0.71554 0.63104 1.0000
  Bi  Bi 0.40550 0.71263 0.00000 1.0000
  Bi  Bi 0.40550 0.71263 0.00000 1.0000
  Bi  Bi 0.40550 0.71263 0.00000 1.0000
  Bi  Bi 0.40550 0.71263 0.00000 1.0000
  Bi  Bi 0.44694 0.73335 0.36895 1.0000
  Bi  Bi 0.44694 0.73335 0.36895 1.0000
  Bi  Bi 0.43493 0.71554 0.63104 1.0000
  Bi  Bi 0.43493 0.71554 0.63104 1.0000
  Bi  Bi 0.42912 0.71263 0.00000 1.0000
  Bi  Bi 0.42912 0.71263 0.00000 1.0000
  Bi  Bi 0.42912 0.71263 0.00000 1.0000
  Bi  Bi 0.42912 0.71263 0.00000 1.0000
  Bi  Bi 0.47056 0.73335 0.36895 1.0000
  Bi  Bi 0.47056 0.73335 0.36895 1.0000
  Bi  Bi 0.45856 0.71554 0.63104 1.0000
  Bi  Bi 0.45856 0.71554 0.63104 1.0000
  Bi  Bi 0.45275 0.71263 0.00000 1.0000
  Bi  Bi 0.45275 0.71263 0.00000 1.0000
  Bi  Bi 0.45275 0.71263 0.00000 1.0000
  Bi  Bi 0.45275 0.71263 0.00000 1.0000
  Bi  Bi 0.49419 0.73335 0.36895 1.0000
  Bi  Bi 0.49419 0.73335 0.36895 1.0000
  Bi  Bi 0.48219 0.71554 0.63104 1.0000
  Bi  Bi 0.48219 0.71554 0.63104 1.0000
  Bi  Bi 0.47637 0.71263 0.00000 1.0000
  Bi  Bi 0.47637 0.71263 0.00000 1.0000
  Bi  Bi 0.47637 0.71263 0.00000 1.0000
  Bi  Bi 0.47637 0.71263 0.00000 1.0000
  Bi  Bi 0.51781 0.73335 0.36895 1.0000
  Bi  Bi 0.51781 0.73335 0.36895 1.0000
  Bi  Bi 0.50581 0.71554 0.63104 1.0000
  Bi  Bi 0.50581 0.71554 0.63104 1.0000
  Bi  Bi 0.50000 0.71263 0.00000 1.0000
  Bi  Bi 0.50000 0.71263 0.00000 1.0000
  Bi  Bi 0.50000 0.71263 0.00000 1.0000
  Bi  Bi 0.50000 0.71263 0.00000 1.0000
  Bi  Bi 0.54144 0.73335 0.36895 1.0000
  Bi  Bi 0.54144 0.73335 0.36895 1.0000
  Bi  Bi 0.52944 0.71554 0.63104 1.0000
  Bi  Bi 0.52944 0.71554 0.63104 1.0000
  Bi  Bi 0.52363 0.71263 0.00000 1.0000
  Bi  Bi 0.52363 0.71263 0.00000 1.0000
  Bi  Bi 0.52363 0.71263 0.00000 1.0000
  Bi  Bi 0.52363 0.71263 0.00000 1.0000
  Bi  Bi 0.56507 0.73335 0.36895 1.0000
  Bi  Bi 0.56507 0.73335 0.36895 1.0000
  Bi  Bi 0.55306 0.71554 0.63104 1.0000
  Bi  Bi 0.55306 0.71554 0.63104 1.0000
  Bi  Bi 0.54725 0.71263 0.00000 1.0000
  Bi  Bi 0.54725 0.71263 0.00000 1.0000
  Bi  Bi 0.54725 0.71263 0.00000 1.0000
  Bi  Bi 0.54725 0.71263 0.00000 1.0000
  Bi  Bi 0.58869 0.73335 0.36895 1.0000
  Bi  Bi 0.58869 0.73335 0.36895 1.0000
  Bi  Bi 0.57669 0.71554 0.63104 1.0000
  Bi  Bi 0.57669 0.71554 0.63104 1.0000
  Bi  Bi 0.57088 0.71263 0.00000 1.0000
  Bi  Bi 0.57088 0.71263 0.00000 1.0000
  Bi  Bi 0.57088 0.71263 0.00000 1.0000
  Bi  Bi 0.57088 0.71263 0.00000 1.0000
  Bi  Bi 0.61232 0.73335 0.36895 1.0000
  Bi  Bi 0.61232 0.73335 0.36895 1.0000
  Bi  Bi 0.60032 0.71554 0.63104 1.0000
  Bi  Bi 0.60032 0.71554 0.63104 1.0000
  Bi  Bi 0.59450 0.71263 0.00000 1.0000
  Bi  Bi 0.59450 0.71263 0.00000 1.0000
  Bi  Bi 0.59450 0.71263 0.00000 1.0000
  Bi  Bi 0.59450 0.71263 0.00000 1.0000
  Bi  Bi 0.63594 0.73335 0.36895 1.0000
  Bi  Bi 0.63594 0.73335 0.36895 1.0000
  Bi  Bi 0.62394 0.71554 0.63104 1.0000
  Bi  Bi 0.62394 0.71554 0.63104 1.0000
  Bi  Bi 0.61813 0.71263 0.00000 1.0000
  Bi  Bi 0.61813 0.71263 0.00000 1.0000
  Bi  Bi 0.61813 0.71263 0.00000 1.0000
  Bi  Bi 0.61813 0.71263 0.00000 1.0000
  Bi  Bi 0.65957 0.73335 0.36895 1.0000
  Bi  Bi 0.65957 0.73335 0.36895 1.0000
  Bi  Bi 0.64757 0.71554 0.63104 1.0000
  Bi  Bi 0.64757 0.71554 0.63104 1.0000
  Bi  Bi 0.64176 0.71263 0.00000 1.0000
  Bi  Bi 0.64176 0.71263 0.00000 1.0000
  Bi  Bi 0.64176 0.71263 0.00000 1.0000
  Bi  Bi 0.64176 0.71263 0.00000 1.0000
  Bi  Bi 0.68320 0.73335 0.36895 1.0000
  Bi  Bi 0.68320 0.73335 0.36895 1.0000
  Bi  Bi 0.67119 0.71554 0.63104 1.0000
  Bi  Bi 0.67119 0.71554 0.63104 1.0000
  Bi  Bi 0.66538 0.71263 0.00000 1.0000
  Bi  Bi 0.66538 0.71263 0.00000 1.0000
  Bi  Bi 0.66538 0.71263 0.00000 1.0000
  Bi  Bi 0.66538 0.71263 0.00000 1.0000
  Bi  Bi 0.70682 0.73335 0.36895 1.0000
  Bi  Bi 0.70682 0.73335 0.36895 1.0000
  Bi  Bi 0.69482 0.71554 0.63104 1.0000
  Bi  Bi 0.69482 0.71554 0.63104 1.0000
  Bi  Bi 0.68901 0.71263 0.00000 1.0000
  Bi  Bi 0.68901 0.71263 0.00000 1.0000
  Bi  Bi 0.68901 0.71263 0.00000 1.0000
  Bi  Bi 0.68901 0.71263 0.00000 1.0000
  Bi  Bi 0.73045 0.73335 0.36895 1.0000
  Bi  Bi 0.73045 0.73335 0.36895 1.0000
  Bi  Bi 0.71844 0.71554 0.63104 1.0000
  Bi  Bi 0.71844 0.71554 0.63104 1.0000
  Bi  Bi 0.71263 0.71263 0.00000 1.0000
  Bi  Bi 0.71263 0.71263 0.00000 1.0000
  Bi  Bi 0.71263 0.71263 0.00000 1.0000
  Bi  Bi 0.71263 0.71263 0.00000 1.0000
  Bi  Bi 0.75407 0.73335 0.36895 1.0000
  Bi  Bi 0.75407 0.73335 0.36895 1.0000
  Bi  Bi 0.74207 0.71554 0.63104 1.0000
  Bi  Bi 0.74207 0.71554 0.63104 1.0000
  Bi  Bi 0.73626 0.71263 0.00000 1.0000
  Bi  Bi 0.73626 0.71263 0.00000 1.0000
  Bi  Bi 0.73626 0.71263 0.00000 1.0000
  Bi  Bi 0.73626 0.71263 0.00000 1.0000
  Bi  Bi 0.77770 0.73335 0.36895 1.0000
  Bi  Bi 0.77770 0.73335 0.36895 1.0000
  Bi  Bi 0.76570 0.71554 0.63104 1.0000
  Bi  Bi 0.76570 0.71554 0.63104 1.0000
  Bi  Bi 0.75989 0.71263 0.00000 1.0000
  Bi  Bi 0.75989 0.71263 0.00000 1.0000
  Bi  Bi 0.75989 0.71263 0.00000 1.0000
  Bi  Bi 0.75989 0.71263 0.00000 1.0000
  Bi  Bi 0.80133 0.73335 0.36895 1.0000
  Bi  Bi 0.80133 0.73335 0.36895 1.0000
  Bi  Bi 0.78932 0.71554 0.63104 1.0000
  Bi  Bi 0.78932 0.71554 0.63104 1.0000
  Bi  Bi 0.78351 0.71263 0.00000 1.0000
  Bi  Bi 0.78351 0.71263 0.00000 1.0000
  Bi  Bi 0.78351 0.71263 0.00000 1.0000
  Bi  Bi 0.78351 0.71263 0.00000 1.0000
  Bi  Bi 0.82495 0.73335 0.36895 1.0000
  Bi  Bi 0.82495 0.73335 0.36895 1.0000
  Bi  Bi 0.81295 0.71554 0.63104 1.0000
  Bi  Bi 0.81295 0.71554 0.63104 1.0000
  Bi  Bi 0.80714 0.71263 0.00000 1.0000
  Bi  Bi 0.80714 0.71263 0.00000 1.0000
  Bi  Bi 0.80714 0.71263 0.00000 1.0000
  Bi  Bi 0.80714 0.71263 0.00000 1.0000
  Bi  Bi 0.84858 0.73335 0.36895 1.0000
  Bi  Bi 0.84858 0.73335 0.36895 1.0000
  Bi  Bi 0.83657 0.71554 0.63104 1.0000
  Bi  Bi 0.83657 0.71554 0.63104 1.0000
  Bi  Bi 0.83076 0.71263 0.00000 1.0000
  Bi  Bi 0.83076 0.71263 0.00000 1.0000
  Bi  Bi 0.83076 0.71263 0.00000 1.0000
  Bi  Bi 0.83076 0.71263 0.00000 1.0000
  Bi  Bi 0.87220 0.73335 0.36895 1.0000
  Bi  Bi 0.87220 0.73335 0.36895 1.0000
  Bi  Bi 0.86020 0.71554 0.63104 1.0000
  Bi  Bi 0.86020 0.71554 0.63104 1.0000
  Bi  Bi 0.85439 0.71263 0.00000 1.0000
  Bi  Bi 0.85439 0.71263 0.00000 1.0000
  Bi  Bi 0.85439 0.71263 0.00000 1.0000
  Bi  Bi 0.85439 0.71263 0.00000 1.0000
  Bi  Bi 0.89583 0.73335 0.36895 1.0000
  Bi  Bi 0.89583 0.73335 0.36895 1.0000
  Bi  Bi 0.88383 0.71554 0.63104 1.0000
  Bi  Bi 0.88383 0.71554 0.63104 1.0000
  Bi  Bi 0.87802 0.71263 0.00000 1.0000
  Bi  Bi 0.87802 0.71263 0.00000 1.0000
  Mo  Mo 0.87802 0.71263 0.00000 1.0000
  Bi  Bi 0.87802 0.71263 0.00000 1.0000
  Bi  Bi 0.91946 0.73335 0.36895 1.0000
  Bi  Bi 0.91946 0.73335 0.36895 1.0000
  Bi  Bi 0.90745 0.71554 0.63104 1.0000
  Bi  Bi 0.90745 0.71554 0.63104 1.0000
  Bi  Bi 0.90164 0.71263 0.00000 1.0000
  Bi  Bi 0.90164 0.71263 0.00000 1.0000
  Mo  Mo 0.90164 0.71263 0.00000 1.0000
  Bi  Bi 0.90164 0.71263 0.00000 1.0000
  Bi  Bi 0.94308 0.73335 0.36895 1.0000
  Bi  Bi 0.94308 0.73335 0.36895 1.0000
  Bi  Bi 0.93108 0.71554 0.63104 1.0000
  Bi  Bi 0.93108 0.71554 0.63104 1.0000
  Bi  Bi 0.92527 0.71263 0.00000 1.0000
  Bi  Bi 0.92527 0.71263 0.00000 1.0000
  Mo  Mo 0.92527 0.71263 0.00000 1.0000
  Bi  Bi 0.92527 0.71263 0.00000 1.0000
  Bi  Bi 0.96671 0.73335 0.36895 1.0000
  Bi  Bi 0.96671 0.73335 0.36895 1.0000
  Bi  Bi 0.95470 0.71554 0.63104 1.0000
  Bi  Bi 0.95470 0.71554 0.63104 1.0000
  Bi  Bi 0.94889 0.71263 0.00000 1.0000
  Bi  Bi 0.94889 0.71263 0.00000 1.0000
  Bi  Bi 0.94889 0.71263 0.00000 1.0000
  Bi  Bi 0.94889 0.71263 0.00000 1.0000
  Bi  Bi 0.04530 0.75698 0.36895 1.0000
  Bi  Bi 0.04530 0.75698 0.36895 1.0000
  Bi  Bi 0.03329 0.73917 0.63104 1.0000
  Bi  Bi 0.03329 0.73917 0.63104 1.0000
  Bi  Bi 0.02748 0.73626 0.00000 1.0000
  Bi  Bi 0.02748 0.73626 0.00000 1.0000
  Bi  Bi 0.02748 0.73626 0.00000 1.0000
  Bi  Bi 0.02748 0.73626 0.00000 1.0000
  Bi  Bi 0.06892 0.75698 0.36895 1.0000
  Bi  Bi 0.06892 0.75698 0.36895 1.0000
  Bi  Bi 0.05692 0.73917 0.63104 1.0000
  Bi  Bi 0.05692 0.73917 0.63104 1.0000
  Bi  Bi 0.05111 0.73626 0.00000 1.0000
  Bi  Bi 0.05111 0.73626 0.00000 1.0000
  Bi  Bi 0.05111 0.73626 0.00000 1.0000
  Bi  Bi 0.05111 0.73626 0.00000 1.0000
  Bi  Bi 0.09255 0.75698 0.36895 1.0000
  Bi  Bi 0.09255 0.75698 0.36895 1.0000
  Bi  Bi 0.08054 0.73917 0.63104 1.0000
  Bi  Bi 0.08054 0.73917 0.63104 1.0000
  Bi  Bi 0.07473 0.73626 0.00000 1.0000
  Bi  Bi 0.07473 0.73626 0.00000 1.0000
  Bi  Bi 0.07473 0.73626 0.00000 1.0000
  Bi  Bi 0.07473 0.73626 0.00000 1.0000
  Bi  Bi 0.11617 0.75698 0.36895 1.0000
  Bi  Bi 0.11617 0.75698 0.36895 1.0000
  Bi  Bi 0.10417 0.73917 0.63104 1.0000
  Bi  Bi 0.10417 0.73917 0.63104 1.0000
  Bi  Bi 0.09836 0.73626 0.00000 1.0000
  Bi  Bi 0.09836 0.73626 0.00000 1.0000
  Bi  Bi 0.09836 0.73626 0.00000 1.0000
  Bi  Bi 0.09836 0.73626 0.00000 1.0000
  Bi  Bi 0.13980 0.75698 0.36895 1.0000
  Bi  Bi 0.13980 0.75698 0.36895 1.0000
  Bi  Bi 0.12780 0.73917 0.63104 1.0000
  Bi  Bi 0.12780 0.73917 0.63104 1.0000
  Bi  Bi 0.12198 0.73626 0.00000 1.0000
  Bi  Bi 0.12198 0.73626 0.00000 1.0000
  Bi  Bi 0.12198 0.73626 0.00000 1.0000
  Bi  Bi 0.12198 0.73626 0.00000 1.0000
  Bi  Bi 0.16343 0.75698 0.36895 1.0000
  Bi  Bi 0.16343 0.75698 0.36895 1.0000
  Bi  Bi 0.15142 0.73917 0.63104 1.0000
  Bi  Bi 0.15142 0.73917 0.63104 1.0000
  Bi  Bi 0.14561 0.73626 0.00000 1.0000
  Bi  Bi 0.14561 0.73626 0.00000 1.0000
  Bi  Bi 0.14561 0.73626 0.00000 1.0000
  Bi  Bi 0.14561 0.73626 0.00000 1.0000
  Bi  Bi 0.18705 0.75698 0.36895 1.0000
  Bi  Bi 0.18705 0.75698 0.36895 1.0000
  Bi  Bi 0.17505 0.73917 0.63104 1.0000
  Bi  Bi 0.17505 0.73917 0.63104 1.0000
  Bi  Bi 0.16924 0.73626 0.00000 1.0000
  Bi  Bi 0.16924 0.73626 0.00000 1.0000
  Bi  Bi 0.16924 0.73626 0.00000 1.0000
  Bi  Bi 0.16924 0.73626 0.00000 1.0000
  Bi  Bi 0.21068 0.75698 0.36895 1.0000
  Bi  Bi 0.21068 0.75698 0.36895 1.0000
  Bi  Bi 0.19867 0.73917 0.63104 1.0000
  Bi  Bi 0.19867 0.73917 0.63104 1.0000
  Bi  Bi 0.19286 0.73626 0.00000 1.0000
  Bi  Bi 0.19286 0.73626 0.00000 1.0000
  Bi  Bi 0.19286 0.73626 0.00000 1.0000
  Bi  Bi 0.19286 0.73626 0.00000 1.0000
  Bi  Bi 0.23430 0.75698 0.36895 1.0000
  Bi  Bi 0.23430 0.75698 0.36895 1.0000
  Bi  Bi 0.22230 0.73917 0.63104 1.0000
  Bi  Bi 0.22230 0.73917 0.63104 1.0000
  Bi  Bi 0.21649 0.73626 0.00000 1.0000
  Bi  Bi 0.21649 0.73626 0.00000 1.0000
  Bi  Bi 0.21649 0.73626 0.00000 1.0000
  Bi  Bi 0.21649 0.73626 0.00000 1.0000
  Bi  Bi 0.25793 0.75698 0.36895 1.0000
  Bi  Bi 0.25793 0.75698 0.36895 1.0000
  Bi  Bi 0.24593 0.73917 0.63104 1.0000
  Bi  Bi 0.24593 0.73917 0.63104 1.0000
  Bi  Bi 0.24011 0.73626 0.00000 1.0000
  Bi  Bi 0.24011 0.73626 0.00000 1.0000
  Bi  Bi 0.24011 0.73626 0.00000 1.0000
  Bi  Bi 0.24011 0.73626 0.00000 1.0000
  Bi  Bi 0.28156 0.75698 0.36895 1.0000
  Bi  Bi 0.28156 0.75698 0.36895 1.0000
  Bi  Bi 0.26955 0.73917 0.63104 1.0000
  Bi  Bi 0.26955 0.73917 0.63104 1.0000
  Bi  Bi 0.26374 0.73626 0.00000 1.0000
  Bi  Bi 0.26374 0.73626 0.00000 1.0000
  Bi  Bi 0.26374 0.73626 0.00000 1.0000
  Bi  Bi 0.26374 0.73626 0.00000 1.0000
  Bi  Bi 0.30518 0.75698 0.36895 1.0000
  Bi  Bi 0.30518 0.75698 0.36895 1.0000
  Bi  Bi 0.29318 0.73917 0.63104 1.0000
  Bi  Bi 0.29318 0.73917 0.63104 1.0000
  Bi  Bi 0.28737 0.73626 0.00000 1.0000
  Bi  Bi 0.28737 0.73626 0.00000 1.0000
  Bi  Bi 0.28737 0.73626 0.00000 1.0000
  Bi  Bi 0.28737 0.73626 0.00000 1.0000
  Bi  Bi 0.32881 0.75698 0.36895 1.0000
  Bi  Bi 0.32881 0.75698 0.36895 1.0000
  Bi  Bi 0.31680 0.73917 0.63104 1.0000
  Bi  Bi 0.31680 0.73917 0.63104 1.0000
  Bi  Bi 0.31099 0.73626 0.00000 1.0000
  Bi  Bi 0.31099 0.73626 0.00000 1.0000
  Bi  Bi 0.31099 0.73626 0.00000 1.0000
  Bi  Bi 0.31099 0.73626 0.00000 1.0000
  Bi  Bi 0.35243 0.75698 0.36895 1.0000
  Bi  Bi 0.35243 0.75698 0.36895 1.0000
  Bi  Bi 0.34043 0.73917 0.63104 1.0000
  Bi  Bi 0.34043 0.73917 0.63104 1.0000
  Bi  Bi 0.33462 0.73626 0.00000 1.0000
  Bi  Bi 0.33462 0.73626 0.00000 1.0000
  Bi  Bi 0.33462 0.73626 0.00000 1.0000
  Bi  Bi 0.33462 0.73626 0.00000 1.0000
  Bi  Bi 0.37606 0.75698 0.36895 1.0000
  Bi  Bi 0.37606 0.75698 0.36895 1.0000
  Bi  Bi 0.36406 0.73917 0.63104 1.0000
  Bi  Bi 0.36406 0.73917 0.63104 1.0000
  Bi  Bi 0.35824 0.73626 0.00000 1.0000
  Bi  Bi 0.35824 0.73626 0.00000 1.0000
  Bi  Bi 0.35824 0.73626 0.00000 1.0000
  Bi  Bi 0.35824 0.73626 0.00000 1.0000
  Bi  Bi 0.39968 0.75698 0.36895 1.0000
  Bi  Bi 0.39968 0.75698 0.36895 1.0000
  Bi  Bi 0.38768 0.73917 0.63104 1.0000
  Bi  Bi 0.38768 0.73917 0.63104 1.0000
  Bi  Bi 0.38187 0.73626 0.00000 1.0000
  Bi  Bi 0.38187 0.73626 0.00000 1.0000
  Bi  Bi 0.38187 0.73626 0.00000 1.0000
  Bi  Bi 0.38187 0.73626 0.00000 1.0000
  Bi  Bi 0.42331 0.75698 0.36895 1.0000
  Bi  Bi 0.42331 0.75698 0.36895 1.0000
  Bi  Bi 0.41131 0.73917 0.63104 1.0000
  Bi  Bi 0.41131 0.73917 0.63104 1.0000
  Bi  Bi 0.40550 0.73626 0.00000 1.0000
  Bi  Bi 0.40550 0.73626 0.00000 1.0000
  Bi  Bi 0.40550 0.73626 0.00000 1.0000
  Bi  Bi 0.40550 0.73626 0.00000 1.0000
  Bi  Bi 0.44694 0.75698 0.36895 1.0000
  Bi  Bi 0.44694 0.75698 0.36895 1.0000
  Bi  Bi 0.43493 0.73917 0.63104 1.0000
  Bi  Bi 0.43493 0.73917 0.63104 1.0000
  Bi  Bi 0.42912 0.73626 0.00000 1.0000
  Bi  Bi 0.42912 0.73626 0.00000 1.0000
  Bi  Bi 0.42912 0.73626 0.00000 1.0000
  Bi  Bi 0.42912 0.73626 0.00000 1.0000
  Bi  Bi 0.47056 0.75698 0.36895 1.0000
  Bi  Bi 0.47056 0.75698 0.36895 1.0000
  Bi  Bi 0.45856 0.73917 0.63104 1.0000
  Bi  Bi 0.45856 0.73917 0.63104 1.0000
  Bi  Bi 0.45275 0.73626 0.00000 1.0000
  Bi  Bi 0.45275 0.73626 0.00000 1.0000
  Bi  Bi 0.45275 0.73626 0.00000 1.0000
  Bi  Bi 0.45275 0.73626 0.00000 1.0000
  Bi  Bi 0.49419 0.75698 0.36895 1.0000
  Bi  Bi 0.49419 0.75698 0.36895 1.0000
  Bi  Bi 0.48219 0.73917 0.63104 1.0000
  Bi  Bi 0.48219 0.73917 0.63104 1.0000
  Bi  Bi 0.47637 0.73626 0.00000 1.0000
  Bi  Bi 0.47637 0.73626 0.00000 1.0000
  Bi  Bi 0.47637 0.73626 0.00000 1.0000
  Bi  Bi 0.47637 0.73626 0.00000 1.0000
  Bi  Bi 0.51781 0.75698 0.36895 1.0000
  Bi  Bi 0.51781 0.75698 0.36895 1.0000
  Bi  Bi 0.50581 0.73917 0.63104 1.0000
  Bi  Bi 0.50581 0.73917 0.63104 1.0000
  Bi  Bi 0.50000 0.73626 0.00000 1.0000
  Bi  Bi 0.50000 0.73626 0.00000 1.0000
  Bi  Bi 0.50000 0.73626 0.00000 1.0000
  Bi  Bi 0.50000 0.73626 0.00000 1.0000
  Bi  Bi 0.54144 0.75698 0.36895 1.0000
  Bi  Bi 0.54144 0.75698 0.36895 1.0000
  Bi  Bi 0.52944 0.73917 0.63104 1.0000
  Bi  Bi 0.52944 0.73917 0.63104 1.0000
  Bi  Bi 0.52363 0.73626 0.00000 1.0000
  Bi  Bi 0.52363 0.73626 0.00000 1.0000
  Bi  Bi 0.52363 0.73626 0.00000 1.0000
  Bi  Bi 0.52363 0.73626 0.00000 1.0000
  Bi  Bi 0.56507 0.75698 0.36895 1.0000
  Bi  Bi 0.56507 0.75698 0.36895 1.0000
  Bi  Bi 0.55306 0.73917 0.63104 1.0000
  Bi  Bi 0.55306 0.73917 0.63104 1.0000
  Bi  Bi 0.54725 0.73626 0.00000 1.0000
  Bi  Bi 0.54725 0.73626 0.00000 1.0000
  Bi  Bi 0.54725 0.73626 0.00000 1.0000
  Bi  Bi 0.54725 0.73626 0.00000 1.0000
  Bi  Bi 0.58869 0.75698 0.36895 1.0000
  Bi  Bi 0.58869 0.75698 0.36895 1.0000
  Bi  Bi 0.57669 0.73917 0.63104 1.0000
  Bi  Bi 0.57669 0.73917 0.63104 1.0000
  Bi  Bi 0.57088 0.73626 0.00000 1.0000
  Bi  Bi 0.57088 0.73626 0.00000 1.0000
  Bi  Bi 0.57088 0.73626 0.00000 1.0000
  Bi  Bi 0.57088 0.73626 0.00000 1.0000
  Bi  Bi 0.61232 0.75698 0.36895 1.0000
  Bi  Bi 0.61232 0.75698 0.36895 1.0000
  Bi  Bi 0.60032 0.73917 0.63104 1.0000
  Bi  Bi 0.60032 0.73917 0.63104 1.0000
  Bi  Bi 0.59450 0.73626 0.00000 1.0000
  Bi  Bi 0.59450 0.73626 0.00000 1.0000
  Bi  Bi 0.59450 0.73626 0.00000 1.0000
  Bi  Bi 0.59450 0.73626 0.00000 1.0000
  Bi  Bi 0.63594 0.75698 0.36895 1.0000
  Bi  Bi 0.63594 0.75698 0.36895 1.0000
  Bi  Bi 0.62394 0.73917 0.63104 1.0000
  Bi  Bi 0.62394 0.73917 0.63104 1.0000
  Bi  Bi 0.61813 0.73626 0.00000 1.0000
  Bi  Bi 0.61813 0.73626 0.00000 1.0000
  Bi  Bi 0.61813 0.73626 0.00000 1.0000
  Bi  Bi 0.61813 0.73626 0.00000 1.0000
  Bi  Bi 0.65957 0.75698 0.36895 1.0000
  Bi  Bi 0.65957 0.75698 0.36895 1.0000
  Bi  Bi 0.64757 0.73917 0.63104 1.0000
  Bi  Bi 0.64757 0.73917 0.63104 1.0000
  Bi  Bi 0.64176 0.73626 0.00000 1.0000
  Bi  Bi 0.64176 0.73626 0.00000 1.0000
  Bi  Bi 0.64176 0.73626 0.00000 1.0000
  Bi  Bi 0.64176 0.73626 0.00000 1.0000
  Bi  Bi 0.68320 0.75698 0.36895 1.0000
  Bi  Bi 0.68320 0.75698 0.36895 1.0000
  Bi  Bi 0.67119 0.73917 0.63104 1.0000
  Bi  Bi 0.67119 0.73917 0.63104 1.0000
  Bi  Bi 0.66538 0.73626 0.00000 1.0000
  Bi  Bi 0.66538 0.73626 0.00000 1.0000
  Bi  Bi 0.66538 0.73626 0.00000 1.0000
  Bi  Bi 0.66538 0.73626 0.00000 1.0000
  Bi  Bi 0.70682 0.75698 0.36895 1.0000
  Bi  Bi 0.70682 0.75698 0.36895 1.0000
  Bi  Bi 0.69482 0.73917 0.63104 1.0000
  Bi  Bi 0.69482 0.73917 0.63104 1.0000
  Bi  Bi 0.68901 0.73626 0.00000 1.0000
  Bi  Bi 0.68901 0.73626 0.00000 1.0000
  Bi  Bi 0.68901 0.73626 0.00000 1.0000
  Bi  Bi 0.68901 0.73626 0.00000 1.0000
  Bi  Bi 0.73045 0.75698 0.36895 1.0000
  Bi  Bi 0.73045 0.75698 0.36895 1.0000
  Bi  Bi 0.71844 0.73917 0.63104 1.0000
  Bi  Bi 0.71844 0.73917 0.63104 1.0000
  Bi  Bi 0.71263 0.73626 0.00000 1.0000
  Bi  Bi 0.71263 0.73626 0.00000 1.0000
  Bi  Bi 0.71263 0.73626 0.00000 1.0000
  Bi  Bi 0.71263 0.73626 0.00000 1.0000
  Bi  Bi 0.75407 0.75698 0.36895 1.0000
  Bi  Bi 0.75407 0.75698 0.36895 1.0000
  Bi  Bi 0.74207 0.73917 0.63104 1.0000
  Bi  Bi 0.74207 0.73917 0.63104 1.0000
  Bi  Bi 0.73626 0.73626 0.00000 1.0000
  Bi  Bi 0.73626 0.73626 0.00000 1.0000
  Bi  Bi 0.73626 0.73626 0.00000 1.0000
  Bi  Bi 0.73626 0.73626 0.00000 1.0000
  Bi  Bi 0.77770 0.75698 0.36895 1.0000
  Bi  Bi 0.77770 0.75698 0.36895 1.0000
  Bi  Bi 0.76570 0.73917 0.63104 1.0000
  Bi  Bi 0.76570 0.73917 0.63104 1.0000
  Bi  Bi 0.75989 0.73626 0.00000 1.0000
  Bi  Bi 0.75989 0.73626 0.00000 1.0000
  Bi  Bi 0.75989 0.73626 0.00000 1.0000
  Bi  Bi 0.75989 0.73626 0.00000 1.0000
  Bi  Bi 0.80133 0.75698 0.36895 1.0000
  Bi  Bi 0.80133 0.75698 0.36895 1.0000
  Bi  Bi 0.78932 0.73917 0.63104 1.0000
  Bi  Bi 0.78932 0.73917 0.63104 1.0000
  Bi  Bi 0.78351 0.73626 0.00000 1.0000
  Bi  Bi 0.78351 0.73626 0.00000 1.0000
  Bi  Bi 0.78351 0.73626 0.00000 1.0000
  Bi  Bi 0.78351 0.73626 0.00000 1.0000
  Bi  Bi 0.82495 0.75698 0.36895 1.0000
  Bi  Bi 0.82495 0.75698 0.36895 1.0000
  Bi  Bi 0.81295 0.73917 0.63104 1.0000
  Bi  Bi 0.81295 0.73917 0.63104 1.0000
  Bi  Bi 0.80714 0.73626 0.00000 1.0000
  Bi  Bi 0.80714 0.73626 0.00000 1.0000
  Bi  Bi 0.80714 0.73626 0.00000 1.0000
  Bi  Bi 0.80714 0.73626 0.00000 1.0000
  Bi  Bi 0.84858 0.75698 0.36895 1.0000
  Bi  Bi 0.84858 0.75698 0.36895 1.0000
  Bi  Bi 0.83657 0.73917 0.63104 1.0000
  Bi  Bi 0.83657 0.73917 0.63104 1.0000
  Bi  Bi 0.83076 0.73626 0.00000 1.0000
  Bi  Bi 0.83076 0.73626 0.00000 1.0000
  Bi  Bi 0.83076 0.73626 0.00000 1.0000
  Bi  Bi 0.83076 0.73626 0.00000 1.0000
  Bi  Bi 0.87220 0.75698 0.36895 1.0000
  Bi  Bi 0.87220 0.75698 0.36895 1.0000
  Bi  Bi 0.86020 0.73917 0.63104 1.0000
  Bi  Bi 0.86020 0.73917 0.63104 1.0000
  Bi  Bi 0.85439 0.73626 0.00000 1.0000
  Bi  Bi 0.85439 0.73626 0.00000 1.0000
  Mo  Mo 0.85439 0.73626 0.00000 1.0000
  Bi  Bi 0.85439 0.73626 0.00000 1.0000
  Bi  Bi 0.89583 0.75698 0.36895 1.0000
  Bi  Bi 0.89583 0.75698 0.36895 1.0000
  Bi  Bi 0.88383 0.73917 0.63104 1.0000
  Bi  Bi 0.88383 0.73917 0.63104 1.0000
  Bi  Bi 0.87802 0.73626 0.00000 1.0000
  Bi  Bi 0.87802 0.73626 0.00000 1.0000
  Mo  Mo 0.87802 0.73626 0.00000 1.0000
  Bi  Bi 0.87802 0.73626 0.00000 1.0000
  Bi  Bi 0.91946 0.75698 0.36895 1.0000
  Bi  Bi 0.91946 0.75698 0.36895 1.0000
  Bi  Bi 0.90745 0.73917 0.63104 1.0000
  Bi  Bi 0.90745 0.73917 0.63104 1.0000
  Bi  Bi 0.90164 0.73626 0.00000 1.0000
  Bi  Bi 0.90164 0.73626 0.00000 1.0000
  Mo  Mo 0.90164 0.73626 0.00000 1.0000
  Bi  Bi 0.90164 0.73626 0.00000 1.0000
  Bi  Bi 0.94308 0.75698 0.36895 1.0000
  Bi  Bi 0.94308 0.75698 0.36895 1.0000
  Bi  Bi 0.93108 0.73917 0.63104 1.0000
  Bi  Bi 0.93108 0.73917 0.63104 1.0000
  Bi  Bi 0.92527 0.73626 0.00000 1.0000
  Bi  Bi 0.92527 0.73626 0.00000 1.0000
  Mo  Mo 0.92527 0.73626 0.00000 1.0000
  Bi  Bi 0.92527 0.73626 0.00000 1.0000
  Bi  Bi 0.96671 0.75698 0.36895 1.0000
  Bi  Bi 0.96671 0.75698 0.36895 1.0000
  Bi  Bi 0.95470 0.73917 0.63104 1.0000
  Bi  Bi 0.95470 0.73917 0.63104 1.0000
  Bi  Bi 0.94889 0.73626 0.00000 1.0000
  Bi  Bi 0.94889 0.73626 0.00000 1.0000
  Bi  Bi 0.94889 0.73626 0.00000 1.0000
  Bi  Bi 0.94889 0.73626 0.00000 1.0000
  Bi  Bi 0.04530 0.78061 0.36895 1.0000
  Bi  Bi 0.04530 0.78061 0.36895 1.0000
  Bi  Bi 0.03329 0.76279 0.63104 1.0000
  Bi  Bi 0.03329 0.76279 0.63104 1.0000
  Bi  Bi 0.02748 0.75989 0.00000 1.0000
  Bi  Bi 0.02748 0.75989 0.00000 1.0000
  Bi  Bi 0.02748 0.75989 0.00000 1.0000
  Bi  Bi 0.02748 0.75989 0.00000 1.0000
  Bi  Bi 0.06892 0.78061 0.36895 1.0000
  Bi  Bi 0.06892 0.78061 0.36895 1.0000
  Bi  Bi 0.05692 0.76279 0.63104 1.0000
  Bi  Bi 0.05692 0.76279 0.63104 1.0000
  Bi  Bi 0.05111 0.75989 0.00000 1.0000
  Bi  Bi 0.05111 0.75989 0.00000 1.0000
  Bi  Bi 0.05111 0.75989 0.00000 1.0000
  Bi  Bi 0.05111 0.75989 0.00000 1.0000
  Bi  Bi 0.09255 0.78061 0.36895 1.0000
  Bi  Bi 0.09255 0.78061 0.36895 1.0000
  Bi  Bi 0.08054 0.76279 0.63104 1.0000
  Bi  Bi 0.08054 0.76279 0.63104 1.0000
  Bi  Bi 0.07473 0.75989 0.00000 1.0000
  Bi  Bi 0.07473 0.75989 0.00000 1.0000
  Bi  Bi 0.07473 0.75989 0.00000 1.0000
  Bi  Bi 0.07473 0.75989 0.00000 1.0000
  Bi  Bi 0.11617 0.78061 0.36895 1.0000
  Bi  Bi 0.11617 0.78061 0.36895 1.0000
  Bi  Bi 0.10417 0.76279 0.63104 1.0000
  Bi  Bi 0.10417 0.76279 0.63104 1.0000
  Bi  Bi 0.09836 0.75989 0.00000 1.0000
  Bi  Bi 0.09836 0.75989 0.00000 1.0000
  Bi  Bi 0.09836 0.75989 0.00000 1.0000
  Bi  Bi 0.09836 0.75989 0.00000 1.0000
  Bi  Bi 0.13980 0.78061 0.36895 1.0000
  Bi  Bi 0.13980 0.78061 0.36895 1.0000
  Bi  Bi 0.12780 0.76279 0.63104 1.0000
  Bi  Bi 0.12780 0.76279 0.63104 1.0000
  Bi  Bi 0.12198 0.75989 0.00000 1.0000
  Bi  Bi 0.12198 0.75989 0.00000 1.0000
  Bi  Bi 0.12198 0.75989 0.00000 1.0000
  Bi  Bi 0.12198 0.75989 0.00000 1.0000
  Bi  Bi 0.16343 0.78061 0.36895 1.0000
  Bi  Bi 0.16343 0.78061 0.36895 1.0000
  Bi  Bi 0.15142 0.76279 0.63104 1.0000
  Bi  Bi 0.15142 0.76279 0.63104 1.0000
  Bi  Bi 0.14561 0.75989 0.00000 1.0000
  Bi  Bi 0.14561 0.75989 0.00000 1.0000
  Bi  Bi 0.14561 0.75989 0.00000 1.0000
  Bi  Bi 0.14561 0.75989 0.00000 1.0000
  Bi  Bi 0.18705 0.78061 0.36895 1.0000
  Bi  Bi 0.18705 0.78061 0.36895 1.0000
  Bi  Bi 0.17505 0.76279 0.63104 1.0000
  Bi  Bi 0.17505 0.76279 0.63104 1.0000
  Bi  Bi 0.16924 0.75989 0.00000 1.0000
  Bi  Bi 0.16924 0.75989 0.00000 1.0000
  Bi  Bi 0.16924 0.75989 0.00000 1.0000
  Bi  Bi 0.16924 0.75989 0.00000 1.0000
  Bi  Bi 0.21068 0.78061 0.36895 1.0000
  Bi  Bi 0.21068 0.78061 0.36895 1.0000
  Bi  Bi 0.19867 0.76279 0.63104 1.0000
  Bi  Bi 0.19867 0.76279 0.63104 1.0000
  Bi  Bi 0.19286 0.75989 0.00000 1.0000
  Bi  Bi 0.19286 0.75989 0.00000 1.0000
  Bi  Bi 0.19286 0.75989 0.00000 1.0000
  Bi  Bi 0.19286 0.75989 0.00000 1.0000
  Bi  Bi 0.23430 0.78061 0.36895 1.0000
  Bi  Bi 0.23430 0.78061 0.36895 1.0000
  Bi  Bi 0.22230 0.76279 0.63104 1.0000
  Bi  Bi 0.22230 0.76279 0.63104 1.0000
  Bi  Bi 0.21649 0.75989 0.00000 1.0000
  Bi  Bi 0.21649 0.75989 0.00000 1.0000
  Bi  Bi 0.21649 0.75989 0.00000 1.0000
  Bi  Bi 0.21649 0.75989 0.00000 1.0000
  Bi  Bi 0.25793 0.78061 0.36895 1.0000
  Bi  Bi 0.25793 0.78061 0.36895 1.0000
  Bi  Bi 0.24593 0.76279 0.63104 1.0000
  Bi  Bi 0.24593 0.76279 0.63104 1.0000
  Bi  Bi 0.24011 0.75989 0.00000 1.0000
  Bi  Bi 0.24011 0.75989 0.00000 1.0000
  Bi  Bi 0.24011 0.75989 0.00000 1.0000
  Bi  Bi 0.24011 0.75989 0.00000 1.0000
  Bi  Bi 0.28156 0.78061 0.36895 1.0000
  Bi  Bi 0.28156 0.78061 0.36895 1.0000
  Bi  Bi 0.26955 0.76279 0.63104 1.0000
  Bi  Bi 0.26955 0.76279 0.63104 1.0000
  Bi  Bi 0.26374 0.75989 0.00000 1.0000
  Bi  Bi 0.26374 0.75989 0.00000 1.0000
  Bi  Bi 0.26374 0.75989 0.00000 1.0000
  Bi  Bi 0.26374 0.75989 0.00000 1.0000
  Bi  Bi 0.30518 0.78061 0.36895 1.0000
  Bi  Bi 0.30518 0.78061 0.36895 1.0000
  Bi  Bi 0.29318 0.76279 0.63104 1.0000
  Bi  Bi 0.29318 0.76279 0.63104 1.0000
  Bi  Bi 0.28737 0.75989 0.00000 1.0000
  Bi  Bi 0.28737 0.75989 0.00000 1.0000
  Bi  Bi 0.28737 0.75989 0.00000 1.0000
  Bi  Bi 0.28737 0.75989 0.00000 1.0000
  Bi  Bi 0.32881 0.78061 0.36895 1.0000
  Bi  Bi 0.32881 0.78061 0.36895 1.0000
  Bi  Bi 0.31680 0.76279 0.63104 1.0000
  Bi  Bi 0.31680 0.76279 0.63104 1.0000
  Bi  Bi 0.31099 0.75989 0.00000 1.0000
  Bi  Bi 0.31099 0.75989 0.00000 1.0000
  Bi  Bi 0.31099 0.75989 0.00000 1.0000
  Bi  Bi 0.31099 0.75989 0.00000 1.0000
  Bi  Bi 0.35243 0.78061 0.36895 1.0000
  Bi  Bi 0.35243 0.78061 0.36895 1.0000
  Bi  Bi 0.34043 0.76279 0.63104 1.0000
  Bi  Bi 0.34043 0.76279 0.63104 1.0000
  Bi  Bi 0.33462 0.75989 0.00000 1.0000
  Bi  Bi 0.33462 0.75989 0.00000 1.0000
  Bi  Bi 0.33462 0.75989 0.00000 1.0000
  Bi  Bi 0.33462 0.75989 0.00000 1.0000
  Bi  Bi 0.37606 0.78061 0.36895 1.0000
  Bi  Bi 0.37606 0.78061 0.36895 1.0000
  Bi  Bi 0.36406 0.76279 0.63104 1.0000
  Bi  Bi 0.36406 0.76279 0.63104 1.0000
  Bi  Bi 0.35824 0.75989 0.00000 1.0000
  Bi  Bi 0.35824 0.75989 0.00000 1.0000
  Bi  Bi 0.35824 0.75989 0.00000 1.0000
  Bi  Bi 0.35824 0.75989 0.00000 1.0000
  Bi  Bi 0.39968 0.78061 0.36895 1.0000
  Bi  Bi 0.39968 0.78061 0.36895 1.0000
  Bi  Bi 0.38768 0.76279 0.63104 1.0000
  Bi  Bi 0.38768 0.76279 0.63104 1.0000
  Bi  Bi 0.38187 0.75989 0.00000 1.0000
  Bi  Bi 0.38187 0.75989 0.00000 1.0000
  Bi  Bi 0.38187 0.75989 0.00000 1.0000
  Bi  Bi 0.38187 0.75989 0.00000 1.0000
  Bi  Bi 0.42331 0.78061 0.36895 1.0000
  Bi  Bi 0.42331 0.78061 0.36895 1.0000
  Bi  Bi 0.41131 0.76279 0.63104 1.0000
  Bi  Bi 0.41131 0.76279 0.63104 1.0000
  Bi  Bi 0.40550 0.75989 0.00000 1.0000
  Bi  Bi 0.40550 0.75989 0.00000 1.0000
  Bi  Bi 0.40550 0.75989 0.00000 1.0000
  Bi  Bi 0.40550 0.75989 0.00000 1.0000
  Bi  Bi 0.44694 0.78061 0.36895 1.0000
  Bi  Bi 0.44694 0.78061 0.36895 1.0000
  Bi  Bi 0.43493 0.76279 0.63104 1.0000
  Bi  Bi 0.43493 0.76279 0.63104 1.0000
  Bi  Bi 0.42912 0.75989 0.00000 1.0000
  Bi  Bi 0.42912 0.75989 0.00000 1.0000
  Bi  Bi 0.42912 0.75989 0.00000 1.0000
  Bi  Bi 0.42912 0.75989 0.00000 1.0000
  Bi  Bi 0.47056 0.78061 0.36895 1.0000
  Bi  Bi 0.47056 0.78061 0.36895 1.0000
  Bi  Bi 0.45856 0.76279 0.63104 1.0000
  Bi  Bi 0.45856 0.76279 0.63104 1.0000
  Bi  Bi 0.45275 0.75989 0.00000 1.0000
  Bi  Bi 0.45275 0.75989 0.00000 1.0000
  Bi  Bi 0.45275 0.75989 0.00000 1.0000
  Bi  Bi 0.45275 0.75989 0.00000 1.0000
  Bi  Bi 0.49419 0.78061 0.36895 1.0000
  Bi  Bi 0.49419 0.78061 0.36895 1.0000
  Bi  Bi 0.48219 0.76279 0.63104 1.0000
  Bi  Bi 0.48219 0.76279 0.63104 1.0000
  Bi  Bi 0.47637 0.75989 0.00000 1.0000
  Bi  Bi 0.47637 0.75989 0.00000 1.0000
  Bi  Bi 0.47637 0.75989 0.00000 1.0000
  Bi  Bi 0.47637 0.75989 0.00000 1.0000
  Bi  Bi 0.51781 0.78061 0.36895 1.0000
  Bi  Bi 0.51781 0.78061 0.36895 1.0000
  Bi  Bi 0.50581 0.76279 0.63104 1.0000
  Bi  Bi 0.50581 0.76279 0.63104 1.0000
  Bi  Bi 0.50000 0.75989 0.00000 1.0000
  Bi  Bi 0.50000 0.75989 0.00000 1.0000
  Bi  Bi 0.50000 0.75989 0.00000 1.0000
  Bi  Bi 0.50000 0.75989 0.00000 1.0000
  Bi  Bi 0.54144 0.78061 0.36895 1.0000
  Bi  Bi 0.54144 0.78061 0.36895 1.0000
  Bi  Bi 0.52944 0.76279 0.63104 1.0000
  Bi  Bi 0.52944 0.76279 0.63104 1.0000
  Bi  Bi 0.52363 0.75989 0.00000 1.0000
  Bi  Bi 0.52363 0.75989 0.00000 1.0000
  Bi  Bi 0.52363 0.75989 0.00000 1.0000
  Bi  Bi 0.52363 0.75989 0.00000 1.0000
  Bi  Bi 0.56507 0.78061 0.36895 1.0000
  Bi  Bi 0.56507 0.78061 0.36895 1.0000
  Bi  Bi 0.55306 0.76279 0.63104 1.0000
  Bi  Bi 0.55306 0.76279 0.63104 1.0000
  Bi  Bi 0.54725 0.75989 0.00000 1.0000
  Bi  Bi 0.54725 0.75989 0.00000 1.0000
  Bi  Bi 0.54725 0.75989 0.00000 1.0000
  Bi  Bi 0.54725 0.75989 0.00000 1.0000
  Bi  Bi 0.58869 0.78061 0.36895 1.0000
  Bi  Bi 0.58869 0.78061 0.36895 1.0000
  Bi  Bi 0.57669 0.76279 0.63104 1.0000
  Bi  Bi 0.57669 0.76279 0.63104 1.0000
  Bi  Bi 0.57088 0.75989 0.00000 1.0000
  Bi  Bi 0.57088 0.75989 0.00000 1.0000
  Bi  Bi 0.57088 0.75989 0.00000 1.0000
  Bi  Bi 0.57088 0.75989 0.00000 1.0000
  Bi  Bi 0.61232 0.78061 0.36895 1.0000
  Bi  Bi 0.61232 0.78061 0.36895 1.0000
  Bi  Bi 0.60032 0.76279 0.63104 1.0000
  Bi  Bi 0.60032 0.76279 0.63104 1.0000
  Bi  Bi 0.59450 0.75989 0.00000 1.0000
  Bi  Bi 0.59450 0.75989 0.00000 1.0000
  Bi  Bi 0.59450 0.75989 0.00000 1.0000
  Bi  Bi 0.59450 0.75989 0.00000 1.0000
  Bi  Bi 0.63594 0.78061 0.36895 1.0000
  Bi  Bi 0.63594 0.78061 0.36895 1.0000
  Bi  Bi 0.62394 0.76279 0.63104 1.0000
  Bi  Bi 0.62394 0.76279 0.63104 1.0000
  Bi  Bi 0.61813 0.75989 0.00000 1.0000
  Bi  Bi 0.61813 0.75989 0.00000 1.0000
  Bi  Bi 0.61813 0.75989 0.00000 1.0000
  Bi  Bi 0.61813 0.75989 0.00000 1.0000
  Bi  Bi 0.65957 0.78061 0.36895 1.0000
  Bi  Bi 0.65957 0.78061 0.36895 1.0000
  Bi  Bi 0.64757 0.76279 0.63104 1.0000
  Bi  Bi 0.64757 0.76279 0.63104 1.0000
  Bi  Bi 0.64176 0.75989 0.00000 1.0000
  Bi  Bi 0.64176 0.75989 0.00000 1.0000
  Bi  Bi 0.64176 0.75989 0.00000 1.0000
  Bi  Bi 0.64176 0.75989 0.00000 1.0000
  Bi  Bi 0.68320 0.78061 0.36895 1.0000
  Bi  Bi 0.68320 0.78061 0.36895 1.0000
  Bi  Bi 0.67119 0.76279 0.63104 1.0000
  Bi  Bi 0.67119 0.76279 0.63104 1.0000
  Bi  Bi 0.66538 0.75989 0.00000 1.0000
  Bi  Bi 0.66538 0.75989 0.00000 1.0000
  Bi  Bi 0.66538 0.75989 0.00000 1.0000
  Bi  Bi 0.66538 0.75989 0.00000 1.0000
  Bi  Bi 0.70682 0.78061 0.36895 1.0000
  Bi  Bi 0.70682 0.78061 0.36895 1.0000
  Bi  Bi 0.69482 0.76279 0.63104 1.0000
  Bi  Bi 0.69482 0.76279 0.63104 1.0000
  Bi  Bi 0.68901 0.75989 0.00000 1.0000
  Bi  Bi 0.68901 0.75989 0.00000 1.0000
  Bi  Bi 0.68901 0.75989 0.00000 1.0000
  Bi  Bi 0.68901 0.75989 0.00000 1.0000
  Bi  Bi 0.73045 0.78061 0.36895 1.0000
  Bi  Bi 0.73045 0.78061 0.36895 1.0000
  Bi  Bi 0.71844 0.76279 0.63104 1.0000
  Bi  Bi 0.71844 0.76279 0.63104 1.0000
  Bi  Bi 0.71263 0.75989 0.00000 1.0000
  Bi  Bi 0.71263 0.75989 0.00000 1.0000
  Bi  Bi 0.71263 0.75989 0.00000 1.0000
  Bi  Bi 0.71263 0.75989 0.00000 1.0000
  Bi  Bi 0.75407 0.78061 0.36895 1.0000
  Bi  Bi 0.75407 0.78061 0.36895 1.0000
  Bi  Bi 0.74207 0.76279 0.63104 1.0000
  Bi  Bi 0.74207 0.76279 0.63104 1.0000
  Bi  Bi 0.73626 0.75989 0.00000 1.0000
  Bi  Bi 0.73626 0.75989 0.00000 1.0000
  Bi  Bi 0.73626 0.75989 0.00000 1.0000
  Bi  Bi 0.73626 0.75989 0.00000 1.0000
  Bi  Bi 0.77770 0.78061 0.36895 1.0000
  Bi  Bi 0.77770 0.78061 0.36895 1.0000
  Bi  Bi 0.76570 0.76279 0.63104 1.0000
  Bi  Bi 0.76570 0.76279 0.63104 1.0000
  Bi  Bi 0.75989 0.75989 0.00000 1.0000
  Bi  Bi 0.75989 0.75989 0.00000 1.0000
  Bi  Bi 0.75989 0.75989 0.00000 1.0000
  Bi  Bi 0.75989 0.75989 0.00000 1.0000
  Bi  Bi 0.80133 0.78061 0.36895 1.0000
  Bi  Bi 0.80133 0.78061 0.36895 1.0000
  Bi  Bi 0.78932 0.76279 0.63104 1.0000
  Bi  Bi 0.78932 0.76279 0.63104 1.0000
  Bi  Bi 0.78351 0.75989 0.00000 1.0000
  Bi  Bi 0.78351 0.75989 0.00000 1.0000
  Bi  Bi 0.78351 0.75989 0.00000 1.0000
  Bi  Bi 0.78351 0.75989 0.00000 1.0000
  Bi  Bi 0.82495 0.78061 0.36895 1.0000
  Bi  Bi 0.82495 0.78061 0.36895 1.0000
  Bi  Bi 0.81295 0.76279 0.63104 1.0000
  Bi  Bi 0.81295 0.76279 0.63104 1.0000
  Bi  Bi 0.80714 0.75989 0.00000 1.0000
  Bi  Bi 0.80714 0.75989 0.00000 1.0000
  Bi  Bi 0.80714 0.75989 0.00000 1.0000
  Bi  Bi 0.80714 0.75989 0.00000 1.0000
  Bi  Bi 0.84858 0.78061 0.36895 1.0000
  Bi  Bi 0.84858 0.78061 0.36895 1.0000
  Bi  Bi 0.83657 0.76279 0.63104 1.0000
  Bi  Bi 0.83657 0.76279 0.63104 1.0000
  Bi  Bi 0.83076 0.75989 0.00000 1.0000
  Bi  Bi 0.83076 0.75989 0.00000 1.0000
  Bi  Bi 0.83076 0.75989 0.00000 1.0000
  Bi  Bi 0.83076 0.75989 0.00000 1.0000
  Bi  Bi 0.87220 0.78061 0.36895 1.0000
  Bi  Bi 0.87220 0.78061 0.36895 1.0000
  Bi  Bi 0.86020 0.76279 0.63104 1.0000
  Bi  Bi 0.86020 0.76279 0.63104 1.0000
  Bi  Bi 0.85439 0.75989 0.00000 1.0000
  Bi  Bi 0.85439 0.75989 0.00000 1.0000
  Mo  Mo 0.85439 0.75989 0.00000 1.0000
  Bi  Bi 0.85439 0.75989 0.00000 1.0000
  Bi  Bi 0.89583 0.78061 0.36895 1.0000
  Bi  Bi 0.89583 0.78061 0.36895 1.0000
  Bi  Bi 0.88383 0.76279 0.63104 1.0000
  Bi  Bi 0.88383 0.76279 0.63104 1.0000
  Bi  Bi 0.87802 0.75989 0.00000 1.0000
  Bi  Bi 0.87802 0.75989 0.00000 1.0000
  Mo  Mo 0.87802 0.75989 0.00000 1.0000
  Mo  Mo 0.87802 0.75989 0.00000 1.0000
  Bi  Bi 0.91946 0.78061 0.36895 1.0000
  Bi  Bi 0.91946 0.78061 0.36895 1.0000
  Bi  Bi 0.90745 0.76279 0.63104 1.0000
  Bi  Bi 0.90745 0.76279 0.63104 1.0000
  Bi  Bi 0.90164 0.75989 0.00000 1.0000
  Mo  Mo 0.90164 0.75989 0.00000 1.0000
  Si  Si 0.90164 0.75989 0.00000 1.0000
  Mo  Mo 0.90164 0.75989 0.00000 1.0000
  Bi  Bi 0.94308 0.78061 0.36895 1.0000
  Bi  Bi 0.94308 0.78061 0.36895 1.0000
  Bi  Bi 0.93108 0.76279 0.63104 1.0000
  Bi  Bi 0.93108 0.76279 0.63104 1.0000
  Bi  Bi 0.92527 0.75989 0.00000 1.0000
  Mo  Mo 0.92527 0.75989 0.00000 1.0000
  Mo  Mo 0.92527 0.75989 0.00000 1.0000
  Bi  Bi 0.92527 0.75989 0.00000 1.0000
  Bi  Bi 0.96671 0.78061 0.36895 1.0000
  Bi  Bi 0.96671 0.78061 0.36895 1.0000
  Bi  Bi 0.95470 0.76279 0.63104 1.0000
  Bi  Bi 0.95470 0.76279 0.63104 1.0000
  Bi  Bi 0.94889 0.75989 0.00000 1.0000
  Bi  Bi 0.94889 0.75989 0.00000 1.0000
  Bi  Bi 0.94889 0.75989 0.00000 1.0000
  Bi  Bi 0.94889 0.75989 0.00000 1.0000
  Bi  Bi 0.04530 0.80423 0.36895 1.0000
  Bi  Bi 0.04530 0.80423 0.36895 1.0000
  Bi  Bi 0.03329 0.78642 0.63104 1.0000
  Bi  Bi 0.03329 0.78642 0.63104 1.0000
  Bi  Bi 0.02748 0.78351 0.00000 1.0000
  Bi  Bi 0.02748 0.78351 0.00000 1.0000
  Bi  Bi 0.02748 0.78351 0.00000 1.0000
  Bi  Bi 0.02748 0.78351 0.00000 1.0000
  Bi  Bi 0.06892 0.80423 0.36895 1.0000
  Bi  Bi 0.06892 0.80423 0.36895 1.0000
  Bi  Bi 0.05692 0.78642 0.63104 1.0000
  Bi  Bi 0.05692 0.78642 0.63104 1.0000
  Bi  Bi 0.05111 0.78351 0.00000 1.0000
  Bi  Bi 0.05111 0.78351 0.00000 1.0000
  Bi  Bi 0.05111 0.78351 0.00000 1.0000
  Bi  Bi 0.05111 0.78351 0.00000 1.0000
  Bi  Bi 0.09255 0.80423 0.36895 1.0000
  Bi  Bi 0.09255 0.80423 0.36895 1.0000
  Bi  Bi 0.08054 0.78642 0.63104 1.0000
  Bi  Bi 0.08054 0.78642 0.63104 1.0000
  Bi  Bi 0.07473 0.78351 0.00000 1.0000
  Bi  Bi 0.07473 0.78351 0.00000 1.0000
  Bi  Bi 0.07473 0.78351 0.00000 1.0000
  Bi  Bi 0.07473 0.78351 0.00000 1.0000
  Bi  Bi 0.11617 0.80423 0.36895 1.0000
  Bi  Bi 0.11617 0.80423 0.36895 1.0000
  Bi  Bi 0.10417 0.78642 0.63104 1.0000
  Bi  Bi 0.10417 0.78642 0.63104 1.0000
  Bi  Bi 0.09836 0.78351 0.00000 1.0000
  Bi  Bi 0.09836 0.78351 0.00000 1.0000
  Bi  Bi 0.09836 0.78351 0.00000 1.0000
  Bi  Bi 0.09836 0.78351 0.00000 1.0000
  Bi  Bi 0.13980 0.80423 0.36895 1.0000
  Bi  Bi 0.13980 0.80423 0.36895 1.0000
  Bi  Bi 0.12780 0.78642 0.63104 1.0000
  Bi  Bi 0.12780 0.78642 0.63104 1.0000
  Bi  Bi 0.12198 0.78351 0.00000 1.0000
  Bi  Bi 0.12198 0.78351 0.00000 1.0000
  Bi  Bi 0.12198 0.78351 0.00000 1.0000
  Bi  Bi 0.12198 0.78351 0.00000 1.0000
  Bi  Bi 0.16343 0.80423 0.36895 1.0000
  Bi  Bi 0.16343 0.80423 0.36895 1.0000
  Bi  Bi 0.15142 0.78642 0.63104 1.0000
  Bi  Bi 0.15142 0.78642 0.63104 1.0000
  Bi  Bi 0.14561 0.78351 0.00000 1.0000
  Bi  Bi 0.14561 0.78351 0.00000 1.0000
  Bi  Bi 0.14561 0.78351 0.00000 1.0000
  Bi  Bi 0.14561 0.78351 0.00000 1.0000
  Bi  Bi 0.18705 0.80423 0.36895 1.0000
  Bi  Bi 0.18705 0.80423 0.36895 1.0000
  Bi  Bi 0.17505 0.78642 0.63104 1.0000
  Bi  Bi 0.17505 0.78642 0.63104 1.0000
  Bi  Bi 0.16924 0.78351 0.00000 1.0000
  Bi  Bi 0.16924 0.78351 0.00000 1.0000
  Bi  Bi 0.16924 0.78351 0.00000 1.0000
  Bi  Bi 0.16924 0.78351 0.00000 1.0000
  Bi  Bi 0.21068 0.80423 0.36895 1.0000
  Bi  Bi 0.21068 0.80423 0.36895 1.0000
  Bi  Bi 0.19867 0.78642 0.63104 1.0000
  Bi  Bi 0.19867 0.78642 0.63104 1.0000
  Bi  Bi 0.19286 0.78351 0.00000 1.0000
  Bi  Bi 0.19286 0.78351 0.00000 1.0000
  Bi  Bi 0.19286 0.78351 0.00000 1.0000
  Bi  Bi 0.19286 0.78351 0.00000 1.0000
  Bi  Bi 0.23430 0.80423 0.36895 1.0000
  Bi  Bi 0.23430 0.80423 0.36895 1.0000
  Bi  Bi 0.22230 0.78642 0.63104 1.0000
  Bi  Bi 0.22230 0.78642 0.63104 1.0000
  Bi  Bi 0.21649 0.78351 0.00000 1.0000
  Bi  Bi 0.21649 0.78351 0.00000 1.0000
  Bi  Bi 0.21649 0.78351 0.00000 1.0000
  Bi  Bi 0.21649 0.78351 0.00000 1.0000
  Bi  Bi 0.25793 0.80423 0.36895 1.0000
  Bi  Bi 0.25793 0.80423 0.36895 1.0000
  Bi  Bi 0.24593 0.78642 0.63104 1.0000
  Bi  Bi 0.24593 0.78642 0.63104 1.0000
  Bi  Bi 0.24011 0.78351 0.00000 1.0000
  Bi  Bi 0.24011 0.78351 0.00000 1.0000
  Bi  Bi 0.24011 0.78351 0.00000 1.0000
  Bi  Bi 0.24011 0.78351 0.00000 1.0000
  Bi  Bi 0.28156 0.80423 0.36895 1.0000
  Bi  Bi 0.28156 0.80423 0.36895 1.0000
  Bi  Bi 0.26955 0.78642 0.63104 1.0000
  Bi  Bi 0.26955 0.78642 0.63104 1.0000
  Bi  Bi 0.26374 0.78351 0.00000 1.0000
  Bi  Bi 0.26374 0.78351 0.00000 1.0000
  Bi  Bi 0.26374 0.78351 0.00000 1.0000
  Bi  Bi 0.26374 0.78351 0.00000 1.0000
  Bi  Bi 0.30518 0.80423 0.36895 1.0000
  Bi  Bi 0.30518 0.80423 0.36895 1.0000
  Bi  Bi 0.29318 0.78642 0.63104 1.0000
  Bi  Bi 0.29318 0.78642 0.63104 1.0000
  Bi  Bi 0.28737 0.78351 0.00000 1.0000
  Bi  Bi 0.28737 0.78351 0.00000 1.0000
  Bi  Bi 0.28737 0.78351 0.00000 1.0000
  Bi  Bi 0.28737 0.78351 0.00000 1.0000
  Bi  Bi 0.32881 0.80423 0.36895 1.0000
  Bi  Bi 0.32881 0.80423 0.36895 1.0000
  Bi  Bi 0.31680 0.78642 0.63104 1.0000
  Bi  Bi 0.31680 0.78642 0.63104 1.0000
  Bi  Bi 0.31099 0.78351 0.00000 1.0000
  Bi  Bi 0.31099 0.78351 0.00000 1.0000
  Bi  Bi 0.31099 0.78351 0.00000 1.0000
  Bi  Bi 0.31099 0.78351 0.00000 1.0000
  Bi  Bi 0.35243 0.80423 0.36895 1.0000
  Bi  Bi 0.35243 0.80423 0.36895 1.0000
  Bi  Bi 0.34043 0.78642 0.63104 1.0000
  Bi  Bi 0.34043 0.78642 0.63104 1.0000
  Bi  Bi 0.33462 0.78351 0.00000 1.0000
  Bi  Bi 0.33462 0.78351 0.00000 1.0000
  Bi  Bi 0.33462 0.78351 0.00000 1.0000
  Bi  Bi 0.33462 0.78351 0.00000 1.0000
  Bi  Bi 0.37606 0.80423 0.36895 1.0000
  Bi  Bi 0.37606 0.80423 0.36895 1.0000
  Bi  Bi 0.36406 0.78642 0.63104 1.0000
  Bi  Bi 0.36406 0.78642 0.63104 1.0000
  Bi  Bi 0.35824 0.78351 0.00000 1.0000
  Bi  Bi 0.35824 0.78351 0.00000 1.0000
  Bi  Bi 0.35824 0.78351 0.00000 1.0000
  Bi  Bi 0.35824 0.78351 0.00000 1.0000
  Bi  Bi 0.39968 0.80423 0.36895 1.0000
  Bi  Bi 0.39968 0.80423 0.36895 1.0000
  Bi  Bi 0.38768 0.78642 0.63104 1.0000
  Bi  Bi 0.38768 0.78642 0.63104 1.0000
  Bi  Bi 0.38187 0.78351 0.00000 1.0000
  Bi  Bi 0.38187 0.78351 0.00000 1.0000
  Bi  Bi 0.38187 0.78351 0.00000 1.0000
  Bi  Bi 0.38187 0.78351 0.00000 1.0000
  Bi  Bi 0.42331 0.80423 0.36895 1.0000
  Bi  Bi 0.42331 0.80423 0.36895 1.0000
  Bi  Bi 0.41131 0.78642 0.63104 1.0000
  Bi  Bi 0.41131 0.78642 0.63104 1.0000
  Bi  Bi 0.40550 0.78351 0.00000 1.0000
  Bi  Bi 0.40550 0.78351 0.00000 1.0000
  Bi  Bi 0.40550 0.78351 0.00000 1.0000
  Bi  Bi 0.40550 0.78351 0.00000 1.0000
  Bi  Bi 0.44694 0.80423 0.36895 1.0000
  Bi  Bi 0.44694 0.80423 0.36895 1.0000
  Bi  Bi 0.43493 0.78642 0.63104 1.0000
  Bi  Bi 0.43493 0.78642 0.63104 1.0000
  Bi  Bi 0.42912 0.78351 0.00000 1.0000
  Bi  Bi 0.42912 0.78351 0.00000 1.0000
  Bi  Bi 0.42912 0.78351 0.00000 1.0000
  Bi  Bi 0.42912 0.78351 0.00000 1.0000
  Bi  Bi 0.47056 0.80423 0.36895 1.0000
  Bi  Bi 0.47056 0.80423 0.36895 1.0000
  Bi  Bi 0.45856 0.78642 0.63104 1.0000
  Bi  Bi 0.45856 0.78642 0.63104 1.0000
  Bi  Bi 0.45275 0.78351 0.00000 1.0000
  Bi  Bi 0.45275 0.78351 0.00000 1.0000
  Bi  Bi 0.45275 0.78351 0.00000 1.0000
  Bi  Bi 0.45275 0.78351 0.00000 1.0000
  Bi  Bi 0.49419 0.80423 0.36895 1.0000
  Bi  Bi 0.49419 0.80423 0.36895 1.0000
  Bi  Bi 0.48219 0.78642 0.63104 1.0000
  Bi  Bi 0.48219 0.78642 0.63104 1.0000
  Bi  Bi 0.47637 0.78351 0.00000 1.0000
  Bi  Bi 0.47637 0.78351 0.00000 1.0000
  Bi  Bi 0.47637 0.78351 0.00000 1.0000
  Bi  Bi 0.47637 0.78351 0.00000 1.0000
  Bi  Bi 0.51781 0.80423 0.36895 1.0000
  Bi  Bi 0.51781 0.80423 0.36895 1.0000
  Bi  Bi 0.50581 0.78642 0.63104 1.0000
  Bi  Bi 0.50581 0.78642 0.63104 1.0000
  Bi  Bi 0.50000 0.78351 0.00000 1.0000
  Bi  Bi 0.50000 0.78351 0.00000 1.0000
  Bi  Bi 0.50000 0.78351 0.00000 1.0000
  Bi  Bi 0.50000 0.78351 0.00000 1.0000
  Bi  Bi 0.54144 0.80423 0.36895 1.0000
  Bi  Bi 0.54144 0.80423 0.36895 1.0000
  Bi  Bi 0.52944 0.78642 0.63104 1.0000
  Bi  Bi 0.52944 0.78642 0.63104 1.0000
  Bi  Bi 0.52363 0.78351 0.00000 1.0000
  Bi  Bi 0.52363 0.78351 0.00000 1.0000
  Bi  Bi 0.52363 0.78351 0.00000 1.0000
  Bi  Bi 0.52363 0.78351 0.00000 1.0000
  Bi  Bi 0.56507 0.80423 0.36895 1.0000
  Bi  Bi 0.56507 0.80423 0.36895 1.0000
  Bi  Bi 0.55306 0.78642 0.63104 1.0000
  Bi  Bi 0.55306 0.78642 0.63104 1.0000
  Bi  Bi 0.54725 0.78351 0.00000 1.0000
  Bi  Bi 0.54725 0.78351 0.00000 1.0000
  Bi  Bi 0.54725 0.78351 0.00000 1.0000
  Bi  Bi 0.54725 0.78351 0.00000 1.0000
  Bi  Bi 0.58869 0.80423 0.36895 1.0000
  Bi  Bi 0.58869 0.80423 0.36895 1.0000
  Bi  Bi 0.57669 0.78642 0.63104 1.0000
  Bi  Bi 0.57669 0.78642 0.63104 1.0000
  Bi  Bi 0.57088 0.78351 0.00000 1.0000
  Bi  Bi 0.57088 0.78351 0.00000 1.0000
  Bi  Bi 0.57088 0.78351 0.00000 1.0000
  Bi  Bi 0.57088 0.78351 0.00000 1.0000
  Bi  Bi 0.61232 0.80423 0.36895 1.0000
  Bi  Bi 0.61232 0.80423 0.36895 1.0000
  Bi  Bi 0.60032 0.78642 0.63104 1.0000
  Bi  Bi 0.60032 0.78642 0.63104 1.0000
  Bi  Bi 0.59450 0.78351 0.00000 1.0000
  Bi  Bi 0.59450 0.78351 0.00000 1.0000
  Bi  Bi 0.59450 0.78351 0.00000 1.0000
  Bi  Bi 0.59450 0.78351 0.00000 1.0000
  Bi  Bi 0.63594 0.80423 0.36895 1.0000
  Bi  Bi 0.63594 0.80423 0.36895 1.0000
  Bi  Bi 0.62394 0.78642 0.63104 1.0000
  Bi  Bi 0.62394 0.78642 0.63104 1.0000
  Bi  Bi 0.61813 0.78351 0.00000 1.0000
  Bi  Bi 0.61813 0.78351 0.00000 1.0000
  Bi  Bi 0.61813 0.78351 0.00000 1.0000
  Bi  Bi 0.61813 0.78351 0.00000 1.0000
  Bi  Bi 0.65957 0.80423 0.36895 1.0000
  Bi  Bi 0.65957 0.80423 0.36895 1.0000
  Bi  Bi 0.64757 0.78642 0.63104 1.0000
  Bi  Bi 0.64757 0.78642 0.63104 1.0000
  Bi  Bi 0.64176 0.78351 0.00000 1.0000
  Bi  Bi 0.64176 0.78351 0.00000 1.0000
  Bi  Bi 0.64176 0.78351 0.00000 1.0000
  Bi  Bi 0.64176 0.78351 0.00000 1.0000
  Bi  Bi 0.68320 0.80423 0.36895 1.0000
  Bi  Bi 0.68320 0.80423 0.36895 1.0000
  Bi  Bi 0.67119 0.78642 0.63104 1.0000
  Bi  Bi 0.67119 0.78642 0.63104 1.0000
  Bi  Bi 0.66538 0.78351 0.00000 1.0000
  Bi  Bi 0.66538 0.78351 0.00000 1.0000
  Bi  Bi 0.66538 0.78351 0.00000 1.0000
  Bi  Bi 0.66538 0.78351 0.00000 1.0000
  Bi  Bi 0.70682 0.80423 0.36895 1.0000
  Bi  Bi 0.70682 0.80423 0.36895 1.0000
  Bi  Bi 0.69482 0.78642 0.63104 1.0000
  Bi  Bi 0.69482 0.78642 0.63104 1.0000
  Bi  Bi 0.68901 0.78351 0.00000 1.0000
  Bi  Bi 0.68901 0.78351 0.00000 1.0000
  Bi  Bi 0.68901 0.78351 0.00000 1.0000
  Bi  Bi 0.68901 0.78351 0.00000 1.0000
  Bi  Bi 0.73045 0.80423 0.36895 1.0000
  Bi  Bi 0.73045 0.80423 0.36895 1.0000
  Bi  Bi 0.71844 0.78642 0.63104 1.0000
  Bi  Bi 0.71844 0.78642 0.63104 1.0000
  Bi  Bi 0.71263 0.78351 0.00000 1.0000
  Bi  Bi 0.71263 0.78351 0.00000 1.0000
  Bi  Bi 0.71263 0.78351 0.00000 1.0000
  Bi  Bi 0.71263 0.78351 0.00000 1.0000
  Bi  Bi 0.75407 0.80423 0.36895 1.0000
  Bi  Bi 0.75407 0.80423 0.36895 1.0000
  Bi  Bi 0.74207 0.78642 0.63104 1.0000
  Bi  Bi 0.74207 0.78642 0.63104 1.0000
  Bi  Bi 0.73626 0.78351 0.00000 1.0000
  Bi  Bi 0.73626 0.78351 0.00000 1.0000
  Bi  Bi 0.73626 0.78351 0.00000 1.0000
  Bi  Bi 0.73626 0.78351 0.00000 1.0000
  Bi  Bi 0.77770 0.80423 0.36895 1.0000
  Bi  Bi 0.77770 0.80423 0.36895 1.0000
  Bi  Bi 0.76570 0.78642 0.63104 1.0000
  Bi  Bi 0.76570 0.78642 0.63104 1.0000
  Bi  Bi 0.75989 0.78351 0.00000 1.0000
  Bi  Bi 0.75989 0.78351 0.00000 1.0000
  Bi  Bi 0.75989 0.78351 0.00000 1.0000
  Bi  Bi 0.75989 0.78351 0.00000 1.0000
  Bi  Bi 0.80133 0.80423 0.36895 1.0000
  Bi  Bi 0.80133 0.80423 0.36895 1.0000
  Bi  Bi 0.78932 0.78642 0.63104 1.0000
  Bi  Bi 0.78932 0.78642 0.63104 1.0000
  Bi  Bi 0.78351 0.78351 0.00000 1.0000
  Bi  Bi 0.78351 0.78351 0.00000 1.0000
  Bi  Bi 0.78351 0.78351 0.00000 1.0000
  Bi  Bi 0.78351 0.78351 0.00000 1.0000
  Bi  Bi 0.82495 0.80423 0.36895 1.0000
  Bi  Bi 0.82495 0.80423 0.36895 1.0000
  Bi  Bi 0.81295 0.78642 0.63104 1.0000
  Bi  Bi 0.81295 0.78642 0.63104 1.0000
  Bi  Bi 0.80714 0.78351 0.00000 1.0000
  Bi  Bi 0.80714 0.78351 0.00000 1.0000
  Bi  Bi 0.80714 0.78351 0.00000 1.0000
  Bi  Bi 0.80714 0.78351 0.00000 1.0000
  Bi  Bi 0.84858 0.80423 0.36895 1.0000
  Bi  Bi 0.84858 0.80423 0.36895 1.0000
  Bi  Bi 0.83657 0.78642 0.63104 1.0000
  Bi  Bi 0.83657 0.78642 0.63104 1.0000
  Bi  Bi 0.83076 0.78351 0.00000 1.0000
  Bi  Bi 0.83076 0.78351 0.00000 1.0000
  Mo  Mo 0.83076 0.78351 0.00000 1.0000
  Bi  Bi 0.83076 0.78351 0.00000 1.0000
  Bi  Bi 0.87220 0.80423 0.36895 1.0000
  Bi  Bi 0.87220 0.80423 0.36895 1.0000
  Bi  Bi 0.86020 0.78642 0.63104 1.0000
  Bi  Bi 0.86020 0.78642 0.63104 1.0000
  Bi  Bi 0.85439 0.78351 0.00000 1.0000
  Bi  Bi 0.85439 0.78351 0.00000 1.0000
  Si  Si 0.85439 0.78351 0.00000 1.0000
  Mo  Mo 0.85439 0.78351 0.00000 1.0000
  Bi  Bi 0.89583 0.80423 0.36895 1.0000
  Bi  Bi 0.89583 0.80423 0.36895 1.0000
  Bi  Bi 0.88383 0.78642 0.63104 1.0000
  Bi  Bi 0.88383 0.78642 0.63104 1.0000
  Mo  Mo 0.87802 0.78351 0.00000 1.0000
  Mo  Mo 0.87802 0.78351 0.00000 1.0000
  Si  Si 0.87802 0.78351 0.00000 1.0000
  Mo  Mo 0.87802 0.78351 0.00000 1.0000
  Bi  Bi 0.91946 0.80423 0.36895 1.0000
  Bi  Bi 0.91946 0.80423 0.36895 1.0000
  Bi  Bi 0.90745 0.78642 0.63104 1.0000
  Bi  Bi 0.90745 0.78642 0.63104 1.0000
  Mo  Mo 0.90164 0.78351 0.00000 1.0000
  Mo  Mo 0.90164 0.78351 0.00000 1.0000
  Si  Si 0.90164 0.78351 0.00000 1.0000
  Mo  Mo 0.90164 0.78351 0.00000 1.0000
  Bi  Bi 0.94308 0.80423 0.36895 1.0000
  Bi  Bi 0.94308 0.80423 0.36895 1.0000
  Bi  Bi 0.93108 0.78642 0.63104 1.0000
  Bi  Bi 0.93108 0.78642 0.63104 1.0000
  Bi  Bi 0.92527 0.78351 0.00000 1.0000
  Mo  Mo 0.92527 0.78351 0.00000 1.0000
  Mo  Mo 0.92527 0.78351 0.00000 1.0000
  Bi  Bi 0.92527 0.78351 0.00000 1.0000
  Bi  Bi 0.96671 0.80423 0.36895 1.0000
  Bi  Bi 0.96671 0.80423 0.36895 1.0000
  Bi  Bi 0.95470 0.78642 0.63104 1.0000
  Bi  Bi 0.95470 0.78642 0.63104 1.0000
  Bi  Bi 0.94889 0.78351 0.00000 1.0000
  Bi  Bi 0.94889 0.78351 0.00000 1.0000
  Bi  Bi 0.94889 0.78351 0.00000 1.0000
  Bi  Bi 0.94889 0.78351 0.00000 1.0000
  Bi  Bi 0.04530 0.82786 0.36895 1.0000
  Bi  Bi 0.04530 0.82786 0.36895 1.0000
  Bi  Bi 0.03329 0.81004 0.63104 1.0000
  Bi  Bi 0.03329 0.81004 0.63104 1.0000
  Bi  Bi 0.02748 0.80714 0.00000 1.0000
  Bi  Bi 0.02748 0.80714 0.00000 1.0000
  Bi  Bi 0.02748 0.80714 0.00000 1.0000
  Bi  Bi 0.02748 0.80714 0.00000 1.0000
  Bi  Bi 0.06892 0.82786 0.36895 1.0000
  Bi  Bi 0.06892 0.82786 0.36895 1.0000
  Bi  Bi 0.05692 0.81004 0.63104 1.0000
  Bi  Bi 0.05692 0.81004 0.63104 1.0000
  Bi  Bi 0.05111 0.80714 0.00000 1.0000
  Bi  Bi 0.05111 0.80714 0.00000 1.0000
  Bi  Bi 0.05111 0.80714 0.00000 1.0000
  Bi  Bi 0.05111 0.80714 0.00000 1.0000
  Bi  Bi 0.09255 0.82786 0.36895 1.0000
  Bi  Bi 0.09255 0.82786 0.36895 1.0000
  Bi  Bi 0.08054 0.81004 0.63104 1.0000
  Bi  Bi 0.08054 0.81004 0.63104 1.0000
  Bi  Bi 0.07473 0.80714 0.00000 1.0000
  Bi  Bi 0.07473 0.80714 0.00000 1.0000
  Bi  Bi 0.07473 0.80714 0.00000 1.0000
  Bi  Bi 0.07473 0.80714 0.00000 1.0000
  Bi  Bi 0.11617 0.82786 0.36895 1.0000
  Bi  Bi 0.11617 0.82786 0.36895 1.0000
  Bi  Bi 0.10417 0.81004 0.63104 1.0000
  Bi  Bi 0.10417 0.81004 0.63104 1.0000
  Bi  Bi 0.09836 0.80714 0.00000 1.0000
  Bi  Bi 0.09836 0.80714 0.00000 1.0000
  Bi  Bi 0.09836 0.80714 0.00000 1.0000
  Bi  Bi 0.09836 0.80714 0.00000 1.0000
  Bi  Bi 0.13980 0.82786 0.36895 1.0000
  Bi  Bi 0.13980 0.82786 0.36895 1.0000
  Bi  Bi 0.12780 0.81004 0.63104 1.0000
  Bi  Bi 0.12780 0.81004 0.63104 1.0000
  Bi  Bi 0.12198 0.80714 0.00000 1.0000
  Bi  Bi 0.12198 0.80714 0.00000 1.0000
  Bi  Bi 0.12198 0.80714 0.00000 1.0000
  Bi  Bi 0.12198 0.80714 0.00000 1.0000
  Bi  Bi 0.16343 0.82786 0.36895 1.0000
  Bi  Bi 0.16343 0.82786 0.36895 1.0000
  Bi  Bi 0.15142 0.81004 0.63104 1.0000
  Bi  Bi 0.15142 0.81004 0.63104 1.0000
  Bi  Bi 0.14561 0.80714 0.00000 1.0000
  Bi  Bi 0.14561 0.80714 0.00000 1.0000
  Bi  Bi 0.14561 0.80714 0.00000 1.0000
  Bi  Bi 0.14561 0.80714 0.00000 1.0000
  Bi  Bi 0.18705 0.82786 0.36895 1.0000
  Bi  Bi 0.18705 0.82786 0.36895 1.0000
  Bi  Bi 0.17505 0.81004 0.63104 1.0000
  Bi  Bi 0.17505 0.81004 0.63104 1.0000
  Bi  Bi 0.16924 0.80714 0.00000 1.0000
  Bi  Bi 0.16924 0.80714 0.00000 1.0000
  Bi  Bi 0.16924 0.80714 0.00000 1.0000
  Bi  Bi 0.16924 0.80714 0.00000 1.0000
  Bi  Bi 0.21068 0.82786 0.36895 1.0000
  Bi  Bi 0.21068 0.82786 0.36895 1.0000
  Bi  Bi 0.19867 0.81004 0.63104 1.0000
  Bi  Bi 0.19867 0.81004 0.63104 1.0000
  Bi  Bi 0.19286 0.80714 0.00000 1.0000
  Bi  Bi 0.19286 0.80714 0.00000 1.0000
  Bi  Bi 0.19286 0.80714 0.00000 1.0000
  Bi  Bi 0.19286 0.80714 0.00000 1.0000
  Bi  Bi 0.23430 0.82786 0.36895 1.0000
  Bi  Bi 0.23430 0.82786 0.36895 1.0000
  Bi  Bi 0.22230 0.81004 0.63104 1.0000
  Bi  Bi 0.22230 0.81004 0.63104 1.0000
  Bi  Bi 0.21649 0.80714 0.00000 1.0000
  Bi  Bi 0.21649 0.80714 0.00000 1.0000
  Bi  Bi 0.21649 0.80714 0.00000 1.0000
  Bi  Bi 0.21649 0.80714 0.00000 1.0000
  Bi  Bi 0.25793 0.82786 0.36895 1.0000
  Bi  Bi 0.25793 0.82786 0.36895 1.0000
  Bi  Bi 0.24593 0.81004 0.63104 1.0000
  Bi  Bi 0.24593 0.81004 0.63104 1.0000
  Bi  Bi 0.24011 0.80714 0.00000 1.0000
  Bi  Bi 0.24011 0.80714 0.00000 1.0000
  Bi  Bi 0.24011 0.80714 0.00000 1.0000
  Bi  Bi 0.24011 0.80714 0.00000 1.0000
  Bi  Bi 0.28156 0.82786 0.36895 1.0000
  Bi  Bi 0.28156 0.82786 0.36895 1.0000
  Bi  Bi 0.26955 0.81004 0.63104 1.0000
  Bi  Bi 0.26955 0.81004 0.63104 1.0000
  Bi  Bi 0.26374 0.80714 0.00000 1.0000
  Bi  Bi 0.26374 0.80714 0.00000 1.0000
  Bi  Bi 0.26374 0.80714 0.00000 1.0000
  Bi  Bi 0.26374 0.80714 0.00000 1.0000
  Bi  Bi 0.30518 0.82786 0.36895 1.0000
  Bi  Bi 0.30518 0.82786 0.36895 1.0000
  Bi  Bi 0.29318 0.81004 0.63104 1.0000
  Bi  Bi 0.29318 0.81004 0.63104 1.0000
  Bi  Bi 0.28737 0.80714 0.00000 1.0000
  Bi  Bi 0.28737 0.80714 0.00000 1.0000
  Bi  Bi 0.28737 0.80714 0.00000 1.0000
  Bi  Bi 0.28737 0.80714 0.00000 1.0000
  Bi  Bi 0.32881 0.82786 0.36895 1.0000
  Bi  Bi 0.32881 0.82786 0.36895 1.0000
  Bi  Bi 0.31680 0.81004 0.63104 1.0000
  Bi  Bi 0.31680 0.81004 0.63104 1.0000
  Bi  Bi 0.31099 0.80714 0.00000 1.0000
  Bi  Bi 0.31099 0.80714 0.00000 1.0000
  Bi  Bi 0.31099 0.80714 0.00000 1.0000
  Bi  Bi 0.31099 0.80714 0.00000 1.0000
  Bi  Bi 0.35243 0.82786 0.36895 1.0000
  Bi  Bi 0.35243 0.82786 0.36895 1.0000
  Bi  Bi 0.34043 0.81004 0.63104 1.0000
  Bi  Bi 0.34043 0.81004 0.63104 1.0000
  Bi  Bi 0.33462 0.80714 0.00000 1.0000
  Bi  Bi 0.33462 0.80714 0.00000 1.0000
  Bi  Bi 0.33462 0.80714 0.00000 1.0000
  Bi  Bi 0.33462 0.80714 0.00000 1.0000
  Bi  Bi 0.37606 0.82786 0.36895 1.0000
  Bi  Bi 0.37606 0.82786 0.36895 1.0000
  Bi  Bi 0.36406 0.81004 0.63104 1.0000
  Bi  Bi 0.36406 0.81004 0.63104 1.0000
  Bi  Bi 0.35824 0.80714 0.00000 1.0000
  Bi  Bi 0.35824 0.80714 0.00000 1.0000
  Bi  Bi 0.35824 0.80714 0.00000 1.0000
  Bi  Bi 0.35824 0.80714 0.00000 1.0000
  Bi  Bi 0.39968 0.82786 0.36895 1.0000
  Bi  Bi 0.39968 0.82786 0.36895 1.0000
  Bi  Bi 0.38768 0.81004 0.63104 1.0000
  Bi  Bi 0.38768 0.81004 0.63104 1.0000
  Bi  Bi 0.38187 0.80714 0.00000 1.0000
  Bi  Bi 0.38187 0.80714 0.00000 1.0000
  Bi  Bi 0.38187 0.80714 0.00000 1.0000
  Bi  Bi 0.38187 0.80714 0.00000 1.0000
  Bi  Bi 0.42331 0.82786 0.36895 1.0000
  Bi  Bi 0.42331 0.82786 0.36895 1.0000
  Bi  Bi 0.41131 0.81004 0.63104 1.0000
  Bi  Bi 0.41131 0.81004 0.63104 1.0000
  Bi  Bi 0.40550 0.80714 0.00000 1.0000
  Bi  Bi 0.40550 0.80714 0.00000 1.0000
  Bi  Bi 0.40550 0.80714 0.00000 1.0000
  Bi  Bi 0.40550 0.80714 0.00000 1.0000
  Bi  Bi 0.44694 0.82786 0.36895 1.0000
  Bi  Bi 0.44694 0.82786 0.36895 1.0000
  Bi  Bi 0.43493 0.81004 0.63104 1.0000
  Bi  Bi 0.43493 0.81004 0.63104 1.0000
  Bi  Bi 0.42912 0.80714 0.00000 1.0000
  Bi  Bi 0.42912 0.80714 0.00000 1.0000
  Bi  Bi 0.42912 0.80714 0.00000 1.0000
  Bi  Bi 0.42912 0.80714 0.00000 1.0000
  Bi  Bi 0.47056 0.82786 0.36895 1.0000
  Bi  Bi 0.47056 0.82786 0.36895 1.0000
  Bi  Bi 0.45856 0.81004 0.63104 1.0000
  Bi  Bi 0.45856 0.81004 0.63104 1.0000
  Bi  Bi 0.45275 0.80714 0.00000 1.0000
  Bi  Bi 0.45275 0.80714 0.00000 1.0000
  Bi  Bi 0.45275 0.80714 0.00000 1.0000
  Bi  Bi 0.45275 0.80714 0.00000 1.0000
  Bi  Bi 0.49419 0.82786 0.36895 1.0000
  Bi  Bi 0.49419 0.82786 0.36895 1.0000
  Bi  Bi 0.48219 0.81004 0.63104 1.0000
  Bi  Bi 0.48219 0.81004 0.63104 1.0000
  Bi  Bi 0.47637 0.80714 0.00000 1.0000
  Bi  Bi 0.47637 0.80714 0.00000 1.0000
  Bi  Bi 0.47637 0.80714 0.00000 1.0000
  Bi  Bi 0.47637 0.80714 0.00000 1.0000
  Bi  Bi 0.51781 0.82786 0.36895 1.0000
  Bi  Bi 0.51781 0.82786 0.36895 1.0000
  Bi  Bi 0.50581 0.81004 0.63104 1.0000
  Bi  Bi 0.50581 0.81004 0.63104 1.0000
  Bi  Bi 0.50000 0.80714 0.00000 1.0000
  Bi  Bi 0.50000 0.80714 0.00000 1.0000
  Bi  Bi 0.50000 0.80714 0.00000 1.0000
  Bi  Bi 0.50000 0.80714 0.00000 1.0000
  Bi  Bi 0.54144 0.82786 0.36895 1.0000
  Bi  Bi 0.54144 0.82786 0.36895 1.0000
  Bi  Bi 0.52944 0.81004 0.63104 1.0000
  Bi  Bi 0.52944 0.81004 0.63104 1.0000
  Bi  Bi 0.52363 0.80714 0.00000 1.0000
  Bi  Bi 0.52363 0.80714 0.00000 1.0000
  Bi  Bi 0.52363 0.80714 0.00000 1.0000
  Bi  Bi 0.52363 0.80714 0.00000 1.0000
  Bi  Bi 0.56507 0.82786 0.36895 1.0000
  Bi  Bi 0.56507 0.82786 0.36895 1.0000
  Bi  Bi 0.55306 0.81004 0.63104 1.0000
  Bi  Bi 0.55306 0.81004 0.63104 1.0000
  Bi  Bi 0.54725 0.80714 0.00000 1.0000
  Bi  Bi 0.54725 0.80714 0.00000 1.0000
  Bi  Bi 0.54725 0.80714 0.00000 1.0000
  Bi  Bi 0.54725 0.80714 0.00000 1.0000
  Bi  Bi 0.58869 0.82786 0.36895 1.0000
  Bi  Bi 0.58869 0.82786 0.36895 1.0000
  Bi  Bi 0.57669 0.81004 0.63104 1.0000
  Bi  Bi 0.57669 0.81004 0.63104 1.0000
  Bi  Bi 0.57088 0.80714 0.00000 1.0000
  Bi  Bi 0.57088 0.80714 0.00000 1.0000
  Bi  Bi 0.57088 0.80714 0.00000 1.0000
  Bi  Bi 0.57088 0.80714 0.00000 1.0000
  Bi  Bi 0.61232 0.82786 0.36895 1.0000
  Bi  Bi 0.61232 0.82786 0.36895 1.0000
  Bi  Bi 0.60032 0.81004 0.63104 1.0000
  Bi  Bi 0.60032 0.81004 0.63104 1.0000
  Bi  Bi 0.59450 0.80714 0.00000 1.0000
  Bi  Bi 0.59450 0.80714 0.00000 1.0000
  Bi  Bi 0.59450 0.80714 0.00000 1.0000
  Bi  Bi 0.59450 0.80714 0.00000 1.0000
  Bi  Bi 0.63594 0.82786 0.36895 1.0000
  Bi  Bi 0.63594 0.82786 0.36895 1.0000
  Bi  Bi 0.62394 0.81004 0.63104 1.0000
  Bi  Bi 0.62394 0.81004 0.63104 1.0000
  Bi  Bi 0.61813 0.80714 0.00000 1.0000
  Bi  Bi 0.61813 0.80714 0.00000 1.0000
  Bi  Bi 0.61813 0.80714 0.00000 1.0000
  Bi  Bi 0.61813 0.80714 0.00000 1.0000
  Bi  Bi 0.65957 0.82786 0.36895 1.0000
  Bi  Bi 0.65957 0.82786 0.36895 1.0000
  Bi  Bi 0.64757 0.81004 0.63104 1.0000
  Bi  Bi 0.64757 0.81004 0.63104 1.0000
  Bi  Bi 0.64176 0.80714 0.00000 1.0000
  Bi  Bi 0.64176 0.80714 0.00000 1.0000
  Bi  Bi 0.64176 0.80714 0.00000 1.0000
  Bi  Bi 0.64176 0.80714 0.00000 1.0000
  Bi  Bi 0.68320 0.82786 0.36895 1.0000
  Bi  Bi 0.68320 0.82786 0.36895 1.0000
  Bi  Bi 0.67119 0.81004 0.63104 1.0000
  Bi  Bi 0.67119 0.81004 0.63104 1.0000
  Bi  Bi 0.66538 0.80714 0.00000 1.0000
  Bi  Bi 0.66538 0.80714 0.00000 1.0000
  Bi  Bi 0.66538 0.80714 0.00000 1.0000
  Bi  Bi 0.66538 0.80714 0.00000 1.0000
  Bi  Bi 0.70682 0.82786 0.36895 1.0000
  Bi  Bi 0.70682 0.82786 0.36895 1.0000
  Bi  Bi 0.69482 0.81004 0.63104 1.0000
  Bi  Bi 0.69482 0.81004 0.63104 1.0000
  Bi  Bi 0.68901 0.80714 0.00000 1.0000
  Bi  Bi 0.68901 0.80714 0.00000 1.0000
  Bi  Bi 0.68901 0.80714 0.00000 1.0000
  Bi  Bi 0.68901 0.80714 0.00000 1.0000
  Bi  Bi 0.73045 0.82786 0.36895 1.0000
  Bi  Bi 0.73045 0.82786 0.36895 1.0000
  Bi  Bi 0.71844 0.81004 0.63104 1.0000
  Bi  Bi 0.71844 0.81004 0.63104 1.0000
  Bi  Bi 0.71263 0.80714 0.00000 1.0000
  Bi  Bi 0.71263 0.80714 0.00000 1.0000
  Bi  Bi 0.71263 0.80714 0.00000 1.0000
  Bi  Bi 0.71263 0.80714 0.00000 1.0000
  Bi  Bi 0.75407 0.82786 0.36895 1.0000
  Bi  Bi 0.75407 0.82786 0.36895 1.0000
  Bi  Bi 0.74207 0.81004 0.63104 1.0000
  Bi  Bi 0.74207 0.81004 0.63104 1.0000
  Bi  Bi 0.73626 0.80714 0.00000 1.0000
  Bi  Bi 0.73626 0.80714 0.00000 1.0000
  Bi  Bi 0.73626 0.80714 0.00000 1.0000
  Bi  Bi 0.73626 0.80714 0.00000 1.0000
  Bi  Bi 0.77770 0.82786 0.36895 1.0000
  Bi  Bi 0.77770 0.82786 0.36895 1.0000
  Bi  Bi 0.76570 0.81004 0.63104 1.0000
  Bi  Bi 0.76570 0.81004 0.63104 1.0000
  Bi  Bi 0.75989 0.80714 0.00000 1.0000
  Bi  Bi 0.75989 0.80714 0.00000 1.0000
  Bi  Bi 0.75989 0.80714 0.00000 1.0000
  Bi  Bi 0.75989 0.80714 0.00000 1.0000
  Bi  Bi 0.80133 0.82786 0.36895 1.0000
  Bi  Bi 0.80133 0.82786 0.36895 1.0000
  Bi  Bi 0.78932 0.81004 0.63104 1.0000
  Bi  Bi 0.78932 0.81004 0.63104 1.0000
  Bi  Bi 0.78351 0.80714 0.00000 1.0000
  Bi  Bi 0.78351 0.80714 0.00000 1.0000
  Bi  Bi 0.78351 0.80714 0.00000 1.0000
  Bi  Bi 0.78351 0.80714 0.00000 1.0000
  Bi  Bi 0.82495 0.82786 0.36895 1.0000
  Bi  Bi 0.82495 0.82786 0.36895 1.0000
  Bi  Bi 0.81295 0.81004 0.63104 1.0000
  Bi  Bi 0.81295 0.81004 0.63104 1.0000
  Bi  Bi 0.80714 0.80714 0.00000 1.0000
  Bi  Bi 0.80714 0.80714 0.00000 1.0000
  Mo  Mo 0.80714 0.80714 0.00000 1.0000
  Bi  Bi 0.80714 0.80714 0.00000 1.0000
  Bi  Bi 0.84858 0.82786 0.36895 1.0000
  Bi  Bi 0.84858 0.82786 0.36895 1.0000
  Bi  Bi 0.83657 0.81004 0.63104 1.0000
  Bi  Bi 0.83657 0.81004 0.63104 1.0000
  Bi  Bi 0.83076 0.80714 0.00000 1.0000
  Bi  Bi 0.83076 0.80714 0.00000 1.0000
  Si  Si 0.83076 0.80714 0.00000 1.0000
  Bi  Bi 0.83076 0.80714 0.00000 1.0000
  Bi  Bi 0.87220 0.82786 0.36895 1.0000
  Bi  Bi 0.87220 0.82786 0.36895 1.0000
  Bi  Bi 0.86020 0.81004 0.63104 1.0000
  Bi  Bi 0.86020 0.81004 0.63104 1.0000
  Mo  Mo 0.85439 0.80714 0.00000 1.0000
  Mo  Mo 0.85439 0.80714 0.00000 1.0000
  Si  Si 0.85439 0.80714 0.00000 1.0000
  Mo  Mo 0.85439 0.80714 0.00000 1.0000
  Bi  Bi 0.89583 0.82786 0.36895 1.0000
  Bi  Bi 0.89583 0.82786 0.36895 1.0000
  Bi  Bi 0.88383 0.81004 0.63104 1.0000
  Bi  Bi 0.88383 0.81004 0.63104 1.0000
  Mo  Mo 0.87802 0.80714 0.00000 1.0000
  Mo  Mo 0.87802 0.80714 0.00000 1.0000
  Rb  Rb 0.87802 0.80714 0.00000 1.0000
  Si  Si 0.87802 0.80714 0.00000 1.0000
  Bi  Bi 0.91946 0.82786 0.36895 1.0000
  Bi  Bi 0.91946 0.82786 0.36895 1.0000
  Bi  Bi 0.90745 0.81004 0.63104 1.0000
  Bi  Bi 0.90745 0.81004 0.63104 1.0000
  Mo  Mo 0.90164 0.80714 0.00000 1.0000
  Mo  Mo 0.90164 0.80714 0.00000 1.0000
  Rb  Rb 0.90164 0.80714 0.00000 1.0000
  Mo  Mo 0.90164 0.80714 0.00000 1.0000
  Bi  Bi 0.94308 0.82786 0.36895 1.0000
  Bi  Bi 0.94308 0.82786 0.36895 1.0000
  Bi  Bi 0.93108 0.81004 0.63104 1.0000
  Bi  Bi 0.93108 0.81004 0.63104 1.0000
  Mo  Mo 0.92527 0.80714 0.00000 1.0000
  Mo  Mo 0.92527 0.80714 0.00000 1.0000
  Si  Si 0.92527 0.80714 0.00000 1.0000
  Mo  Mo 0.92527 0.80714 0.00000 1.0000
  Bi  Bi 0.96671 0.82786 0.36895 1.0000
  Bi  Bi 0.96671 0.82786 0.36895 1.0000
  Bi  Bi 0.95470 0.81004 0.63104 1.0000
  Bi  Bi 0.95470 0.81004 0.63104 1.0000
  Bi  Bi 0.94889 0.80714 0.00000 1.0000
  Bi  Bi 0.94889 0.80714 0.00000 1.0000
  Bi  Bi 0.94889 0.80714 0.00000 1.0000
  Bi  Bi 0.94889 0.80714 0.00000 1.0000
  Bi  Bi 0.04530 0.85148 0.36895 1.0000
  Bi  Bi 0.04530 0.85148 0.36895 1.0000
  Bi  Bi 0.03329 0.83367 0.63104 1.0000
  Bi  Bi 0.03329 0.83367 0.63104 1.0000
  Bi  Bi 0.02748 0.83076 0.00000 1.0000
  Bi  Bi 0.02748 0.83076 0.00000 1.0000
  Bi  Bi 0.02748 0.83076 0.00000 1.0000
  Bi  Bi 0.02748 0.83076 0.00000 1.0000
  Bi  Bi 0.06892 0.85148 0.36895 1.0000
  Bi  Bi 0.06892 0.85148 0.36895 1.0000
  Bi  Bi 0.05692 0.83367 0.63104 1.0000
  Bi  Bi 0.05692 0.83367 0.63104 1.0000
  Bi  Bi 0.05111 0.83076 0.00000 1.0000
  Bi  Bi 0.05111 0.83076 0.00000 1.0000
  Bi  Bi 0.05111 0.83076 0.00000 1.0000
  Bi  Bi 0.05111 0.83076 0.00000 1.0000
  Bi  Bi 0.09255 0.85148 0.36895 1.0000
  Bi  Bi 0.09255 0.85148 0.36895 1.0000
  Bi  Bi 0.08054 0.83367 0.63104 1.0000
  Bi  Bi 0.08054 0.83367 0.63104 1.0000
  Bi  Bi 0.07473 0.83076 0.00000 1.0000
  Bi  Bi 0.07473 0.83076 0.00000 1.0000
  Bi  Bi 0.07473 0.83076 0.00000 1.0000
  Bi  Bi 0.07473 0.83076 0.00000 1.0000
  Bi  Bi 0.11617 0.85148 0.36895 1.0000
  Bi  Bi 0.11617 0.85148 0.36895 1.0000
  Bi  Bi 0.10417 0.83367 0.63104 1.0000
  Bi  Bi 0.10417 0.83367 0.63104 1.0000
  Bi  Bi 0.09836 0.83076 0.00000 1.0000
  Bi  Bi 0.09836 0.83076 0.00000 1.0000
  Bi  Bi 0.09836 0.83076 0.00000 1.0000
  Bi  Bi 0.09836 0.83076 0.00000 1.0000
  Bi  Bi 0.13980 0.85148 0.36895 1.0000
  Bi  Bi 0.13980 0.85148 0.36895 1.0000
  Bi  Bi 0.12780 0.83367 0.63104 1.0000
  Bi  Bi 0.12780 0.83367 0.63104 1.0000
  Bi  Bi 0.12198 0.83076 0.00000 1.0000
  Bi  Bi 0.12198 0.83076 0.00000 1.0000
  Bi  Bi 0.12198 0.83076 0.00000 1.0000
  Bi  Bi 0.12198 0.83076 0.00000 1.0000
  Bi  Bi 0.16343 0.85148 0.36895 1.0000
  Bi  Bi 0.16343 0.85148 0.36895 1.0000
  Bi  Bi 0.15142 0.83367 0.63104 1.0000
  Bi  Bi 0.15142 0.83367 0.63104 1.0000
  Bi  Bi 0.14561 0.83076 0.00000 1.0000
  Bi  Bi 0.14561 0.83076 0.00000 1.0000
  Bi  Bi 0.14561 0.83076 0.00000 1.0000
  Bi  Bi 0.14561 0.83076 0.00000 1.0000
  Bi  Bi 0.18705 0.85148 0.36895 1.0000
  Bi  Bi 0.18705 0.85148 0.36895 1.0000
  Bi  Bi 0.17505 0.83367 0.63104 1.0000
  Bi  Bi 0.17505 0.83367 0.63104 1.0000
  Bi  Bi 0.16924 0.83076 0.00000 1.0000
  Bi  Bi 0.16924 0.83076 0.00000 1.0000
  Bi  Bi 0.16924 0.83076 0.00000 1.0000
  Bi  Bi 0.16924 0.83076 0.00000 1.0000
  Bi  Bi 0.21068 0.85148 0.36895 1.0000
  Bi  Bi 0.21068 0.85148 0.36895 1.0000
  Bi  Bi 0.19867 0.83367 0.63104 1.0000
  Bi  Bi 0.19867 0.83367 0.63104 1.0000
  Bi  Bi 0.19286 0.83076 0.00000 1.0000
  Bi  Bi 0.19286 0.83076 0.00000 1.0000
  Bi  Bi 0.19286 0.83076 0.00000 1.0000
  Bi  Bi 0.19286 0.83076 0.00000 1.0000
  Bi  Bi 0.23430 0.85148 0.36895 1.0000
  Bi  Bi 0.23430 0.85148 0.36895 1.0000
  Bi  Bi 0.22230 0.83367 0.63104 1.0000
  Bi  Bi 0.22230 0.83367 0.63104 1.0000
  Bi  Bi 0.21649 0.83076 0.00000 1.0000
  Bi  Bi 0.21649 0.83076 0.00000 1.0000
  Bi  Bi 0.21649 0.83076 0.00000 1.0000
  Bi  Bi 0.21649 0.83076 0.00000 1.0000
  Bi  Bi 0.25793 0.85148 0.36895 1.0000
  Bi  Bi 0.25793 0.85148 0.36895 1.0000
  Bi  Bi 0.24593 0.83367 0.63104 1.0000
  Bi  Bi 0.24593 0.83367 0.63104 1.0000
  Bi  Bi 0.24011 0.83076 0.00000 1.0000
  Bi  Bi 0.24011 0.83076 0.00000 1.0000
  Bi  Bi 0.24011 0.83076 0.00000 1.0000
  Bi  Bi 0.24011 0.83076 0.00000 1.0000
  Bi  Bi 0.28156 0.85148 0.36895 1.0000
  Bi  Bi 0.28156 0.85148 0.36895 1.0000
  Bi  Bi 0.26955 0.83367 0.63104 1.0000
  Bi  Bi 0.26955 0.83367 0.63104 1.0000
  Bi  Bi 0.26374 0.83076 0.00000 1.0000
  Bi  Bi 0.26374 0.83076 0.00000 1.0000
  Bi  Bi 0.26374 0.83076 0.00000 1.0000
  Bi  Bi 0.26374 0.83076 0.00000 1.0000
  Bi  Bi 0.30518 0.85148 0.36895 1.0000
  Bi  Bi 0.30518 0.85148 0.36895 1.0000
  Bi  Bi 0.29318 0.83367 0.63104 1.0000
  Bi  Bi 0.29318 0.83367 0.63104 1.0000
  Bi  Bi 0.28737 0.83076 0.00000 1.0000
  Bi  Bi 0.28737 0.83076 0.00000 1.0000
  Bi  Bi 0.28737 0.83076 0.00000 1.0000
  Bi  Bi 0.28737 0.83076 0.00000 1.0000
  Bi  Bi 0.32881 0.85148 0.36895 1.0000
  Bi  Bi 0.32881 0.85148 0.36895 1.0000
  Bi  Bi 0.31680 0.83367 0.63104 1.0000
  Bi  Bi 0.31680 0.83367 0.63104 1.0000
  Bi  Bi 0.31099 0.83076 0.00000 1.0000
  Bi  Bi 0.31099 0.83076 0.00000 1.0000
  Bi  Bi 0.31099 0.83076 0.00000 1.0000
  Bi  Bi 0.31099 0.83076 0.00000 1.0000
  Bi  Bi 0.35243 0.85148 0.36895 1.0000
  Bi  Bi 0.35243 0.85148 0.36895 1.0000
  Bi  Bi 0.34043 0.83367 0.63104 1.0000
  Bi  Bi 0.34043 0.83367 0.63104 1.0000
  Bi  Bi 0.33462 0.83076 0.00000 1.0000
  Bi  Bi 0.33462 0.83076 0.00000 1.0000
  Bi  Bi 0.33462 0.83076 0.00000 1.0000
  Bi  Bi 0.33462 0.83076 0.00000 1.0000
  Bi  Bi 0.37606 0.85148 0.36895 1.0000
  Bi  Bi 0.37606 0.85148 0.36895 1.0000
  Bi  Bi 0.36406 0.83367 0.63104 1.0000
  Bi  Bi 0.36406 0.83367 0.63104 1.0000
  Bi  Bi 0.35824 0.83076 0.00000 1.0000
  Bi  Bi 0.35824 0.83076 0.00000 1.0000
  Bi  Bi 0.35824 0.83076 0.00000 1.0000
  Bi  Bi 0.35824 0.83076 0.00000 1.0000
  Bi  Bi 0.39968 0.85148 0.36895 1.0000
  Bi  Bi 0.39968 0.85148 0.36895 1.0000
  Bi  Bi 0.38768 0.83367 0.63104 1.0000
  Bi  Bi 0.38768 0.83367 0.63104 1.0000
  Bi  Bi 0.38187 0.83076 0.00000 1.0000
  Bi  Bi 0.38187 0.83076 0.00000 1.0000
  Bi  Bi 0.38187 0.83076 0.00000 1.0000
  Bi  Bi 0.38187 0.83076 0.00000 1.0000
  Bi  Bi 0.42331 0.85148 0.36895 1.0000
  Bi  Bi 0.42331 0.85148 0.36895 1.0000
  Bi  Bi 0.41131 0.83367 0.63104 1.0000
  Bi  Bi 0.41131 0.83367 0.63104 1.0000
  Bi  Bi 0.40550 0.83076 0.00000 1.0000
  Bi  Bi 0.40550 0.83076 0.00000 1.0000
  Bi  Bi 0.40550 0.83076 0.00000 1.0000
  Bi  Bi 0.40550 0.83076 0.00000 1.0000
  Bi  Bi 0.44694 0.85148 0.36895 1.0000
  Bi  Bi 0.44694 0.85148 0.36895 1.0000
  Bi  Bi 0.43493 0.83367 0.63104 1.0000
  Bi  Bi 0.43493 0.83367 0.63104 1.0000
  Bi  Bi 0.42912 0.83076 0.00000 1.0000
  Bi  Bi 0.42912 0.83076 0.00000 1.0000
  Bi  Bi 0.42912 0.83076 0.00000 1.0000
  Bi  Bi 0.42912 0.83076 0.00000 1.0000
  Bi  Bi 0.47056 0.85148 0.36895 1.0000
  Bi  Bi 0.47056 0.85148 0.36895 1.0000
  Bi  Bi 0.45856 0.83367 0.63104 1.0000
  Bi  Bi 0.45856 0.83367 0.63104 1.0000
  Bi  Bi 0.45275 0.83076 0.00000 1.0000
  Bi  Bi 0.45275 0.83076 0.00000 1.0000
  Bi  Bi 0.45275 0.83076 0.00000 1.0000
  Bi  Bi 0.45275 0.83076 0.00000 1.0000
  Bi  Bi 0.49419 0.85148 0.36895 1.0000
  Bi  Bi 0.49419 0.85148 0.36895 1.0000
  Bi  Bi 0.48219 0.83367 0.63104 1.0000
  Bi  Bi 0.48219 0.83367 0.63104 1.0000
  Bi  Bi 0.47637 0.83076 0.00000 1.0000
  Bi  Bi 0.47637 0.83076 0.00000 1.0000
  Bi  Bi 0.47637 0.83076 0.00000 1.0000
  Bi  Bi 0.47637 0.83076 0.00000 1.0000
  Bi  Bi 0.51781 0.85148 0.36895 1.0000
  Bi  Bi 0.51781 0.85148 0.36895 1.0000
  Bi  Bi 0.50581 0.83367 0.63104 1.0000
  Bi  Bi 0.50581 0.83367 0.63104 1.0000
  Bi  Bi 0.50000 0.83076 0.00000 1.0000
  Bi  Bi 0.50000 0.83076 0.00000 1.0000
  Bi  Bi 0.50000 0.83076 0.00000 1.0000
  Bi  Bi 0.50000 0.83076 0.00000 1.0000
  Bi  Bi 0.54144 0.85148 0.36895 1.0000
  Bi  Bi 0.54144 0.85148 0.36895 1.0000
  Bi  Bi 0.52944 0.83367 0.63104 1.0000
  Bi  Bi 0.52944 0.83367 0.63104 1.0000
  Bi  Bi 0.52363 0.83076 0.00000 1.0000
  Bi  Bi 0.52363 0.83076 0.00000 1.0000
  Bi  Bi 0.52363 0.83076 0.00000 1.0000
  Bi  Bi 0.52363 0.83076 0.00000 1.0000
  Bi  Bi 0.56507 0.85148 0.36895 1.0000
  Bi  Bi 0.56507 0.85148 0.36895 1.0000
  Bi  Bi 0.55306 0.83367 0.63104 1.0000
  Bi  Bi 0.55306 0.83367 0.63104 1.0000
  Bi  Bi 0.54725 0.83076 0.00000 1.0000
  Bi  Bi 0.54725 0.83076 0.00000 1.0000
  Bi  Bi 0.54725 0.83076 0.00000 1.0000
  Bi  Bi 0.54725 0.83076 0.00000 1.0000
  Bi  Bi 0.58869 0.85148 0.36895 1.0000
  Bi  Bi 0.58869 0.85148 0.36895 1.0000
  Bi  Bi 0.57669 0.83367 0.63104 1.0000
  Bi  Bi 0.57669 0.83367 0.63104 1.0000
  Bi  Bi 0.57088 0.83076 0.00000 1.0000
  Bi  Bi 0.57088 0.83076 0.00000 1.0000
  Bi  Bi 0.57088 0.83076 0.00000 1.0000
  Bi  Bi 0.57088 0.83076 0.00000 1.0000
  Bi  Bi 0.61232 0.85148 0.36895 1.0000
  Bi  Bi 0.61232 0.85148 0.36895 1.0000
  Bi  Bi 0.60032 0.83367 0.63104 1.0000
  Bi  Bi 0.60032 0.83367 0.63104 1.0000
  Bi  Bi 0.59450 0.83076 0.00000 1.0000
  Bi  Bi 0.59450 0.83076 0.00000 1.0000
  Bi  Bi 0.59450 0.83076 0.00000 1.0000
  Bi  Bi 0.59450 0.83076 0.00000 1.0000
  Bi  Bi 0.63594 0.85148 0.36895 1.0000
  Bi  Bi 0.63594 0.85148 0.36895 1.0000
  Bi  Bi 0.62394 0.83367 0.63104 1.0000
  Bi  Bi 0.62394 0.83367 0.63104 1.0000
  Bi  Bi 0.61813 0.83076 0.00000 1.0000
  Bi  Bi 0.61813 0.83076 0.00000 1.0000
  Bi  Bi 0.61813 0.83076 0.00000 1.0000
  Bi  Bi 0.61813 0.83076 0.00000 1.0000
  Bi  Bi 0.65957 0.85148 0.36895 1.0000
  Bi  Bi 0.65957 0.85148 0.36895 1.0000
  Bi  Bi 0.64757 0.83367 0.63104 1.0000
  Bi  Bi 0.64757 0.83367 0.63104 1.0000
  Bi  Bi 0.64176 0.83076 0.00000 1.0000
  Bi  Bi 0.64176 0.83076 0.00000 1.0000
  Bi  Bi 0.64176 0.83076 0.00000 1.0000
  Bi  Bi 0.64176 0.83076 0.00000 1.0000
  Bi  Bi 0.68320 0.85148 0.36895 1.0000
  Bi  Bi 0.68320 0.85148 0.36895 1.0000
  Bi  Bi 0.67119 0.83367 0.63104 1.0000
  Bi  Bi 0.67119 0.83367 0.63104 1.0000
  Bi  Bi 0.66538 0.83076 0.00000 1.0000
  Bi  Bi 0.66538 0.83076 0.00000 1.0000
  Bi  Bi 0.66538 0.83076 0.00000 1.0000
  Bi  Bi 0.66538 0.83076 0.00000 1.0000
  Bi  Bi 0.70682 0.85148 0.36895 1.0000
  Bi  Bi 0.70682 0.85148 0.36895 1.0000
  Bi  Bi 0.69482 0.83367 0.63104 1.0000
  Bi  Bi 0.69482 0.83367 0.63104 1.0000
  Bi  Bi 0.68901 0.83076 0.00000 1.0000
  Bi  Bi 0.68901 0.83076 0.00000 1.0000
  Bi  Bi 0.68901 0.83076 0.00000 1.0000
  Bi  Bi 0.68901 0.83076 0.00000 1.0000
  Bi  Bi 0.73045 0.85148 0.36895 1.0000
  Bi  Bi 0.73045 0.85148 0.36895 1.0000
  Bi  Bi 0.71844 0.83367 0.63104 1.0000
  Bi  Bi 0.71844 0.83367 0.63104 1.0000
  Bi  Bi 0.71263 0.83076 0.00000 1.0000
  Bi  Bi 0.71263 0.83076 0.00000 1.0000
  Bi  Bi 0.71263 0.83076 0.00000 1.0000
  Bi  Bi 0.71263 0.83076 0.00000 1.0000
  Bi  Bi 0.75407 0.85148 0.36895 1.0000
  Bi  Bi 0.75407 0.85148 0.36895 1.0000
  Bi  Bi 0.74207 0.83367 0.63104 1.0000
  Bi  Bi 0.74207 0.83367 0.63104 1.0000
  Bi  Bi 0.73626 0.83076 0.00000 1.0000
  Bi  Bi 0.73626 0.83076 0.00000 1.0000
  Bi  Bi 0.73626 0.83076 0.00000 1.0000
  Bi  Bi 0.73626 0.83076 0.00000 1.0000
  Bi  Bi 0.77770 0.85148 0.36895 1.0000
  Bi  Bi 0.77770 0.85148 0.36895 1.0000
  Bi  Bi 0.76570 0.83367 0.63104 1.0000
  Bi  Bi 0.76570 0.83367 0.63104 1.0000
  Bi  Bi 0.75989 0.83076 0.00000 1.0000
  Bi  Bi 0.75989 0.83076 0.00000 1.0000
  Bi  Bi 0.75989 0.83076 0.00000 1.0000
  Bi  Bi 0.75989 0.83076 0.00000 1.0000
  Bi  Bi 0.80133 0.85148 0.36895 1.0000
  Bi  Bi 0.80133 0.85148 0.36895 1.0000
  Bi  Bi 0.78932 0.83367 0.63104 1.0000
  Bi  Bi 0.78932 0.83367 0.63104 1.0000
  Bi  Bi 0.78351 0.83076 0.00000 1.0000
  Bi  Bi 0.78351 0.83076 0.00000 1.0000
  Mo  Mo 0.78351 0.83076 0.00000 1.0000
  Bi  Bi 0.78351 0.83076 0.00000 1.0000
  Bi  Bi 0.82495 0.85148 0.36895 1.0000
  Bi  Bi 0.82495 0.85148 0.36895 1.0000
  Bi  Bi 0.81295 0.83367 0.63104 1.0000
  Bi  Bi 0.81295 0.83367 0.63104 1.0000
  Bi  Bi 0.80714 0.83076 0.00000 1.0000
  Mo  Mo 0.80714 0.83076 0.00000 1.0000
  Mo  Mo 0.80714 0.83076 0.00000 1.0000
  Bi  Bi 0.80714 0.83076 0.00000 1.0000
  Bi  Bi 0.84858 0.85148 0.36895 1.0000
  Bi  Bi 0.84858 0.85148 0.36895 1.0000
  Bi  Bi 0.83657 0.83367 0.63104 1.0000
  Bi  Bi 0.83657 0.83367 0.63104 1.0000
  Mo  Mo 0.83076 0.83076 0.00000 1.0000
  Mo  Mo 0.83076 0.83076 0.00000 1.0000
  Si  Si 0.83076 0.83076 0.00000 1.0000
  Mo  Mo 0.83076 0.83076 0.00000 1.0000
  Mo  Mo 0.87220 0.85148 0.36895 1.0000
  Bi  Bi 0.87220 0.85148 0.36895 1.0000
  Mo  Mo 0.86020 0.83367 0.63104 1.0000
  Bi  Bi 0.86020 0.83367 0.63104 1.0000
  Mo  Mo 0.85439 0.83076 0.00000 1.0000
  Mo  Mo 0.85439 0.83076 0.00000 1.0000
  Rb  Rb 0.85439 0.83076 0.00000 1.0000
  Mo  Mo 0.85439 0.83076 0.00000 1.0000
  Mo  Mo 0.89583 0.85148 0.36895 1.0000
  Bi  Bi 0.89583 0.85148 0.36895 1.0000
  Mo  Mo 0.88383 0.83367 0.63104 1.0000
  Bi  Bi 0.88383 0.83367 0.63104 1.0000
  Si  Si 0.87802 0.83076 0.00000 1.0000
  Si  Si 0.87802 0.83076 0.00000 1.0000
  Rb  Rb 0.87802 0.83076 0.00000 1.0000
  Si  Si 0.87802 0.83076 0.00000 1.0000
  Mo  Mo 0.91946 0.85148 0.36895 1.0000
  Bi  Bi 0.91946 0.85148 0.36895 1.0000
  Mo  Mo 0.90745 0.83367 0.63104 1.0000
  Bi  Bi 0.90745 0.83367 0.63104 1.0000
  Si  Si 0.90164 0.83076 0.00000 1.0000
  Si  Si 0.90164 0.83076 0.00000 1.0000
  Rb  Rb 0.90164 0.83076 0.00000 1.0000
  Si  Si 0.90164 0.83076 0.00000 1.0000
  Bi  Bi 0.94308 0.85148 0.36895 1.0000
  Bi  Bi 0.94308 0.85148 0.36895 1.0000
  Bi  Bi 0.93108 0.83367 0.63104 1.0000
  Bi  Bi 0.93108 0.83367 0.63104 1.0000
  Mo  Mo 0.92527 0.83076 0.00000 1.0000
  Mo  Mo 0.92527 0.83076 0.00000 1.0000
  Si  Si 0.92527 0.83076 0.00000 1.0000
  Mo  Mo 0.92527 0.83076 0.00000 1.0000
  Bi  Bi 0.96671 0.85148 0.36895 1.0000
  Bi  Bi 0.96671 0.85148 0.36895 1.0000
  Bi  Bi 0.95470 0.83367 0.63104 1.0000
  Bi  Bi 0.95470 0.83367 0.63104 1.0000
  Bi  Bi 0.94889 0.83076 0.00000 1.0000
  Bi  Bi 0.94889 0.83076 0.00000 1.0000
  Mo  Mo 0.94889 0.83076 0.00000 1.0000
  Bi  Bi 0.94889 0.83076 0.00000 1.0000
  Bi  Bi 0.04530 0.87511 0.36895 1.0000
  Bi  Bi 0.04530 0.87511 0.36895 1.0000
  Bi  Bi 0.03329 0.85730 0.63104 1.0000
  Bi  Bi 0.03329 0.85730 0.63104 1.0000
  Bi  Bi 0.02748 0.85439 0.00000 1.0000
  Bi  Bi 0.02748 0.85439 0.00000 1.0000
  Bi  Bi 0.02748 0.85439 0.00000 1.0000
  Bi  Bi 0.02748 0.85439 0.00000 1.0000
  Bi  Bi 0.06892 0.87511 0.36895 1.0000
  Bi  Bi 0.06892 0.87511 0.36895 1.0000
  Bi  Bi 0.05692 0.85730 0.63104 1.0000
  Bi  Bi 0.05692 0.85730 0.63104 1.0000
  Bi  Bi 0.05111 0.85439 0.00000 1.0000
  Bi  Bi 0.05111 0.85439 0.00000 1.0000
  Bi  Bi 0.05111 0.85439 0.00000 1.0000
  Bi  Bi 0.05111 0.85439 0.00000 1.0000
  Bi  Bi 0.09255 0.87511 0.36895 1.0000
  Bi  Bi 0.09255 0.87511 0.36895 1.0000
  Bi  Bi 0.08054 0.85730 0.63104 1.0000
  Bi  Bi 0.08054 0.85730 0.63104 1.0000
  Bi  Bi 0.07473 0.85439 0.00000 1.0000
  Bi  Bi 0.07473 0.85439 0.00000 1.0000
  Bi  Bi 0.07473 0.85439 0.00000 1.0000
  Bi  Bi 0.07473 0.85439 0.00000 1.0000
  Bi  Bi 0.11617 0.87511 0.36895 1.0000
  Bi  Bi 0.11617 0.87511 0.36895 1.0000
  Bi  Bi 0.10417 0.85730 0.63104 1.0000
  Bi  Bi 0.10417 0.85730 0.63104 1.0000
  Bi  Bi 0.09836 0.85439 0.00000 1.0000
  Bi  Bi 0.09836 0.85439 0.00000 1.0000
  Bi  Bi 0.09836 0.85439 0.00000 1.0000
  Bi  Bi 0.09836 0.85439 0.00000 1.0000
  Bi  Bi 0.13980 0.87511 0.36895 1.0000
  Bi  Bi 0.13980 0.87511 0.36895 1.0000
  Bi  Bi 0.12780 0.85730 0.63104 1.0000
  Bi  Bi 0.12780 0.85730 0.63104 1.0000
  Bi  Bi 0.12198 0.85439 0.00000 1.0000
  Bi  Bi 0.12198 0.85439 0.00000 1.0000
  Bi  Bi 0.12198 0.85439 0.00000 1.0000
  Bi  Bi 0.12198 0.85439 0.00000 1.0000
  Bi  Bi 0.16343 0.87511 0.36895 1.0000
  Bi  Bi 0.16343 0.87511 0.36895 1.0000
  Bi  Bi 0.15142 0.85730 0.63104 1.0000
  Bi  Bi 0.15142 0.85730 0.63104 1.0000
  Bi  Bi 0.14561 0.85439 0.00000 1.0000
  Bi  Bi 0.14561 0.85439 0.00000 1.0000
  Bi  Bi 0.14561 0.85439 0.00000 1.0000
  Bi  Bi 0.14561 0.85439 0.00000 1.0000
  Bi  Bi 0.18705 0.87511 0.36895 1.0000
  Bi  Bi 0.18705 0.87511 0.36895 1.0000
  Bi  Bi 0.17505 0.85730 0.63104 1.0000
  Bi  Bi 0.17505 0.85730 0.63104 1.0000
  Bi  Bi 0.16924 0.85439 0.00000 1.0000
  Bi  Bi 0.16924 0.85439 0.00000 1.0000
  Bi  Bi 0.16924 0.85439 0.00000 1.0000
  Bi  Bi 0.16924 0.85439 0.00000 1.0000
  Bi  Bi 0.21068 0.87511 0.36895 1.0000
  Bi  Bi 0.21068 0.87511 0.36895 1.0000
  Bi  Bi 0.19867 0.85730 0.63104 1.0000
  Bi  Bi 0.19867 0.85730 0.63104 1.0000
  Bi  Bi 0.19286 0.85439 0.00000 1.0000
  Bi  Bi 0.19286 0.85439 0.00000 1.0000
  Bi  Bi 0.19286 0.85439 0.00000 1.0000
  Bi  Bi 0.19286 0.85439 0.00000 1.0000
  Bi  Bi 0.23430 0.87511 0.36895 1.0000
  Bi  Bi 0.23430 0.87511 0.36895 1.0000
  Bi  Bi 0.22230 0.85730 0.63104 1.0000
  Bi  Bi 0.22230 0.85730 0.63104 1.0000
  Bi  Bi 0.21649 0.85439 0.00000 1.0000
  Bi  Bi 0.21649 0.85439 0.00000 1.0000
  Bi  Bi 0.21649 0.85439 0.00000 1.0000
  Bi  Bi 0.21649 0.85439 0.00000 1.0000
  Bi  Bi 0.25793 0.87511 0.36895 1.0000
  Bi  Bi 0.25793 0.87511 0.36895 1.0000
  Bi  Bi 0.24593 0.85730 0.63104 1.0000
  Bi  Bi 0.24593 0.85730 0.63104 1.0000
  Bi  Bi 0.24011 0.85439 0.00000 1.0000
  Bi  Bi 0.24011 0.85439 0.00000 1.0000
  Bi  Bi 0.24011 0.85439 0.00000 1.0000
  Bi  Bi 0.24011 0.85439 0.00000 1.0000
  Bi  Bi 0.28156 0.87511 0.36895 1.0000
  Bi  Bi 0.28156 0.87511 0.36895 1.0000
  Bi  Bi 0.26955 0.85730 0.63104 1.0000
  Bi  Bi 0.26955 0.85730 0.63104 1.0000
  Bi  Bi 0.26374 0.85439 0.00000 1.0000
  Bi  Bi 0.26374 0.85439 0.00000 1.0000
  Bi  Bi 0.26374 0.85439 0.00000 1.0000
  Bi  Bi 0.26374 0.85439 0.00000 1.0000
  Bi  Bi 0.30518 0.87511 0.36895 1.0000
  Bi  Bi 0.30518 0.87511 0.36895 1.0000
  Bi  Bi 0.29318 0.85730 0.63104 1.0000
  Bi  Bi 0.29318 0.85730 0.63104 1.0000
  Bi  Bi 0.28737 0.85439 0.00000 1.0000
  Bi  Bi 0.28737 0.85439 0.00000 1.0000
  Bi  Bi 0.28737 0.85439 0.00000 1.0000
  Bi  Bi 0.28737 0.85439 0.00000 1.0000
  Bi  Bi 0.32881 0.87511 0.36895 1.0000
  Bi  Bi 0.32881 0.87511 0.36895 1.0000
  Bi  Bi 0.31680 0.85730 0.63104 1.0000
  Bi  Bi 0.31680 0.85730 0.63104 1.0000
  Bi  Bi 0.31099 0.85439 0.00000 1.0000
  Bi  Bi 0.31099 0.85439 0.00000 1.0000
  Bi  Bi 0.31099 0.85439 0.00000 1.0000
  Bi  Bi 0.31099 0.85439 0.00000 1.0000
  Bi  Bi 0.35243 0.87511 0.36895 1.0000
  Bi  Bi 0.35243 0.87511 0.36895 1.0000
  Bi  Bi 0.34043 0.85730 0.63104 1.0000
  Bi  Bi 0.34043 0.85730 0.63104 1.0000
  Bi  Bi 0.33462 0.85439 0.00000 1.0000
  Bi  Bi 0.33462 0.85439 0.00000 1.0000
  Bi  Bi 0.33462 0.85439 0.00000 1.0000
  Bi  Bi 0.33462 0.85439 0.00000 1.0000
  Bi  Bi 0.37606 0.87511 0.36895 1.0000
  Bi  Bi 0.37606 0.87511 0.36895 1.0000
  Bi  Bi 0.36406 0.85730 0.63104 1.0000
  Bi  Bi 0.36406 0.85730 0.63104 1.0000
  Bi  Bi 0.35824 0.85439 0.00000 1.0000
  Bi  Bi 0.35824 0.85439 0.00000 1.0000
  Bi  Bi 0.35824 0.85439 0.00000 1.0000
  Bi  Bi 0.35824 0.85439 0.00000 1.0000
  Bi  Bi 0.39968 0.87511 0.36895 1.0000
  Bi  Bi 0.39968 0.87511 0.36895 1.0000
  Bi  Bi 0.38768 0.85730 0.63104 1.0000
  Bi  Bi 0.38768 0.85730 0.63104 1.0000
  Bi  Bi 0.38187 0.85439 0.00000 1.0000
  Bi  Bi 0.38187 0.85439 0.00000 1.0000
  Bi  Bi 0.38187 0.85439 0.00000 1.0000
  Bi  Bi 0.38187 0.85439 0.00000 1.0000
  Bi  Bi 0.42331 0.87511 0.36895 1.0000
  Bi  Bi 0.42331 0.87511 0.36895 1.0000
  Bi  Bi 0.41131 0.85730 0.63104 1.0000
  Bi  Bi 0.41131 0.85730 0.63104 1.0000
  Bi  Bi 0.40550 0.85439 0.00000 1.0000
  Bi  Bi 0.40550 0.85439 0.00000 1.0000
  Bi  Bi 0.40550 0.85439 0.00000 1.0000
  Bi  Bi 0.40550 0.85439 0.00000 1.0000
  Bi  Bi 0.44694 0.87511 0.36895 1.0000
  Bi  Bi 0.44694 0.87511 0.36895 1.0000
  Bi  Bi 0.43493 0.85730 0.63104 1.0000
  Bi  Bi 0.43493 0.85730 0.63104 1.0000
  Bi  Bi 0.42912 0.85439 0.00000 1.0000
  Bi  Bi 0.42912 0.85439 0.00000 1.0000
  Bi  Bi 0.42912 0.85439 0.00000 1.0000
  Bi  Bi 0.42912 0.85439 0.00000 1.0000
  Bi  Bi 0.47056 0.87511 0.36895 1.0000
  Bi  Bi 0.47056 0.87511 0.36895 1.0000
  Bi  Bi 0.45856 0.85730 0.63104 1.0000
  Bi  Bi 0.45856 0.85730 0.63104 1.0000
  Bi  Bi 0.45275 0.85439 0.00000 1.0000
  Bi  Bi 0.45275 0.85439 0.00000 1.0000
  Bi  Bi 0.45275 0.85439 0.00000 1.0000
  Bi  Bi 0.45275 0.85439 0.00000 1.0000
  Bi  Bi 0.49419 0.87511 0.36895 1.0000
  Bi  Bi 0.49419 0.87511 0.36895 1.0000
  Bi  Bi 0.48219 0.85730 0.63104 1.0000
  Bi  Bi 0.48219 0.85730 0.63104 1.0000
  Bi  Bi 0.47637 0.85439 0.00000 1.0000
  Bi  Bi 0.47637 0.85439 0.00000 1.0000
  Bi  Bi 0.47637 0.85439 0.00000 1.0000
  Bi  Bi 0.47637 0.85439 0.00000 1.0000
  Bi  Bi 0.51781 0.87511 0.36895 1.0000
  Bi  Bi 0.51781 0.87511 0.36895 1.0000
  Bi  Bi 0.50581 0.85730 0.63104 1.0000
  Bi  Bi 0.50581 0.85730 0.63104 1.0000
  Bi  Bi 0.50000 0.85439 0.00000 1.0000
  Bi  Bi 0.50000 0.85439 0.00000 1.0000
  Bi  Bi 0.50000 0.85439 0.00000 1.0000
  Bi  Bi 0.50000 0.85439 0.00000 1.0000
  Bi  Bi 0.54144 0.87511 0.36895 1.0000
  Bi  Bi 0.54144 0.87511 0.36895 1.0000
  Bi  Bi 0.52944 0.85730 0.63104 1.0000
  Bi  Bi 0.52944 0.85730 0.63104 1.0000
  Bi  Bi 0.52363 0.85439 0.00000 1.0000
  Bi  Bi 0.52363 0.85439 0.00000 1.0000
  Bi  Bi 0.52363 0.85439 0.00000 1.0000
  Bi  Bi 0.52363 0.85439 0.00000 1.0000
  Bi  Bi 0.56507 0.87511 0.36895 1.0000
  Bi  Bi 0.56507 0.87511 0.36895 1.0000
  Bi  Bi 0.55306 0.85730 0.63104 1.0000
  Bi  Bi 0.55306 0.85730 0.63104 1.0000
  Bi  Bi 0.54725 0.85439 0.00000 1.0000
  Bi  Bi 0.54725 0.85439 0.00000 1.0000
  Bi  Bi 0.54725 0.85439 0.00000 1.0000
  Bi  Bi 0.54725 0.85439 0.00000 1.0000
  Bi  Bi 0.58869 0.87511 0.36895 1.0000
  Bi  Bi 0.58869 0.87511 0.36895 1.0000
  Bi  Bi 0.57669 0.85730 0.63104 1.0000
  Bi  Bi 0.57669 0.85730 0.63104 1.0000
  Bi  Bi 0.57088 0.85439 0.00000 1.0000
  Bi  Bi 0.57088 0.85439 0.00000 1.0000
  Bi  Bi 0.57088 0.85439 0.00000 1.0000
  Bi  Bi 0.57088 0.85439 0.00000 1.0000
  Bi  Bi 0.61232 0.87511 0.36895 1.0000
  Bi  Bi 0.61232 0.87511 0.36895 1.0000
  Bi  Bi 0.60032 0.85730 0.63104 1.0000
  Bi  Bi 0.60032 0.85730 0.63104 1.0000
  Bi  Bi 0.59450 0.85439 0.00000 1.0000
  Bi  Bi 0.59450 0.85439 0.00000 1.0000
  Bi  Bi 0.59450 0.85439 0.00000 1.0000
  Bi  Bi 0.59450 0.85439 0.00000 1.0000
  Bi  Bi 0.63594 0.87511 0.36895 1.0000
  Bi  Bi 0.63594 0.87511 0.36895 1.0000
  Bi  Bi 0.62394 0.85730 0.63104 1.0000
  Bi  Bi 0.62394 0.85730 0.63104 1.0000
  Bi  Bi 0.61813 0.85439 0.00000 1.0000
  Bi  Bi 0.61813 0.85439 0.00000 1.0000
  Bi  Bi 0.61813 0.85439 0.00000 1.0000
  Bi  Bi 0.61813 0.85439 0.00000 1.0000
  Bi  Bi 0.65957 0.87511 0.36895 1.0000
  Bi  Bi 0.65957 0.87511 0.36895 1.0000
  Bi  Bi 0.64757 0.85730 0.63104 1.0000
  Bi  Bi 0.64757 0.85730 0.63104 1.0000
  Bi  Bi 0.64176 0.85439 0.00000 1.0000
  Bi  Bi 0.64176 0.85439 0.00000 1.0000
  Bi  Bi 0.64176 0.85439 0.00000 1.0000
  Bi  Bi 0.64176 0.85439 0.00000 1.0000
  Bi  Bi 0.68320 0.87511 0.36895 1.0000
  Bi  Bi 0.68320 0.87511 0.36895 1.0000
  Bi  Bi 0.67119 0.85730 0.63104 1.0000
  Bi  Bi 0.67119 0.85730 0.63104 1.0000
  Bi  Bi 0.66538 0.85439 0.00000 1.0000
  Bi  Bi 0.66538 0.85439 0.00000 1.0000
  Bi  Bi 0.66538 0.85439 0.00000 1.0000
  Bi  Bi 0.66538 0.85439 0.00000 1.0000
  Bi  Bi 0.70682 0.87511 0.36895 1.0000
  Bi  Bi 0.70682 0.87511 0.36895 1.0000
  Bi  Bi 0.69482 0.85730 0.63104 1.0000
  Bi  Bi 0.69482 0.85730 0.63104 1.0000
  Bi  Bi 0.68901 0.85439 0.00000 1.0000
  Bi  Bi 0.68901 0.85439 0.00000 1.0000
  Bi  Bi 0.68901 0.85439 0.00000 1.0000
  Bi  Bi 0.68901 0.85439 0.00000 1.0000
  Bi  Bi 0.73045 0.87511 0.36895 1.0000
  Bi  Bi 0.73045 0.87511 0.36895 1.0000
  Bi  Bi 0.71844 0.85730 0.63104 1.0000
  Bi  Bi 0.71844 0.85730 0.63104 1.0000
  Bi  Bi 0.71263 0.85439 0.00000 1.0000
  Bi  Bi 0.71263 0.85439 0.00000 1.0000
  Bi  Bi 0.71263 0.85439 0.00000 1.0000
  Bi  Bi 0.71263 0.85439 0.00000 1.0000
  Bi  Bi 0.75407 0.87511 0.36895 1.0000
  Bi  Bi 0.75407 0.87511 0.36895 1.0000
  Bi  Bi 0.74207 0.85730 0.63104 1.0000
  Bi  Bi 0.74207 0.85730 0.63104 1.0000
  Bi  Bi 0.73626 0.85439 0.00000 1.0000
  Bi  Bi 0.73626 0.85439 0.00000 1.0000
  Bi  Bi 0.73626 0.85439 0.00000 1.0000
  Bi  Bi 0.73626 0.85439 0.00000 1.0000
  Bi  Bi 0.77770 0.87511 0.36895 1.0000
  Bi  Bi 0.77770 0.87511 0.36895 1.0000
  Bi  Bi 0.76570 0.85730 0.63104 1.0000
  Bi  Bi 0.76570 0.85730 0.63104 1.0000
  Bi  Bi 0.75989 0.85439 0.00000 1.0000
  Bi  Bi 0.75989 0.85439 0.00000 1.0000
  Mo  Mo 0.75989 0.85439 0.00000 1.0000
  Bi  Bi 0.75989 0.85439 0.00000 1.0000
  Bi  Bi 0.80133 0.87511 0.36895 1.0000
  Bi  Bi 0.80133 0.87511 0.36895 1.0000
  Bi  Bi 0.78932 0.85730 0.63104 1.0000
  Bi  Bi 0.78932 0.85730 0.63104 1.0000
  Mo  Mo 0.78351 0.85439 0.00000 1.0000
  Mo  Mo 0.78351 0.85439 0.00000 1.0000
  Mo  Mo 0.78351 0.85439 0.00000 1.0000
  Mo  Mo 0.78351 0.85439 0.00000 1.0000
  Bi  Bi 0.82495 0.87511 0.36895 1.0000
  Bi  Bi 0.82495 0.87511 0.36895 1.0000
  Bi  Bi 0.81295 0.85730 0.63104 1.0000
  Bi  Bi 0.81295 0.85730 0.63104 1.0000
  Mo  Mo 0.80714 0.85439 0.00000 1.0000
  Mo  Mo 0.80714 0.85439 0.00000 1.0000
  Si  Si 0.80714 0.85439 0.00000 1.0000
  Mo  Mo 0.80714 0.85439 0.00000 1.0000
  Mo  Mo 0.84858 0.87511 0.36895 1.0000
  Bi  Bi 0.84858 0.87511 0.36895 1.0000
  Mo  Mo 0.83657 0.85730 0.63104 1.0000
  Bi  Bi 0.83657 0.85730 0.63104 1.0000
  Si  Si 0.83076 0.85439 0.00000 1.0000
  Si  Si 0.83076 0.85439 0.00000 1.0000
  Rb  Rb 0.83076 0.85439 0.00000 1.0000
  Mo  Mo 0.83076 0.85439 0.00000 1.0000
  Mo  Mo 0.87220 0.87511 0.36895 1.0000
  Bi  Bi 0.87220 0.87511 0.36895 1.0000
  Mo  Mo 0.86020 0.85730 0.63104 1.0000
  Bi  Bi 0.86020 0.85730 0.63104 1.0000
  Si  Si 0.85439 0.85439 0.00000 1.0000
  Si  Si 0.85439 0.85439 0.00000 1.0000
  Dy  Dy 0.85439 0.85439 0.00000 1.0000
  Si  Si 0.85439 0.85439 0.00000 1.0000
  Mo  Mo 0.89583 0.87511 0.36895 1.0000
  Bi  Bi 0.89583 0.87511 0.36895 1.0000
  Mo  Mo 0.88383 0.85730 0.63104 1.0000
  Bi  Bi 0.88383 0.85730 0.63104 1.0000
  Si  Si 0.87802 0.85439 0.00000 1.0000
  Si  Si 0.87802 0.85439 0.00000 1.0000
  Dy  Dy 0.87802 0.85439 0.00000 1.0000
  Si  Si 0.87802 0.85439 0.00000 1.0000
  Mo  Mo 0.91946 0.87511 0.36895 1.0000
  Bi  Bi 0.91946 0.87511 0.36895 1.0000
  Mo  Mo 0.90745 0.85730 0.63104 1.0000
  Bi  Bi 0.90745 0.85730 0.63104 1.0000
  Si  Si 0.90164 0.85439 0.00000 1.0000
  Si  Si 0.90164 0.85439 0.00000 1.0000
  Dy  Dy 0.90164 0.85439 0.00000 1.0000
  Si  Si 0.90164 0.85439 0.00000 1.0000
  Mo  Mo 0.94308 0.87511 0.36895 1.0000
  Bi  Bi 0.94308 0.87511 0.36895 1.0000
  Bi  Bi 0.93108 0.85730 0.63104 1.0000
  Bi  Bi 0.93108 0.85730 0.63104 1.0000
  Mo  Mo 0.92527 0.85439 0.00000 1.0000
  Si  Si 0.92527 0.85439 0.00000 1.0000
  Rb  Rb 0.92527 0.85439 0.00000 1.0000
  Mo  Mo 0.92527 0.85439 0.00000 1.0000
  Bi  Bi 0.96671 0.87511 0.36895 1.0000
  Bi  Bi 0.96671 0.87511 0.36895 1.0000
  Bi  Bi 0.95470 0.85730 0.63104 1.0000
  Bi  Bi 0.95470 0.85730 0.63104 1.0000
  Bi  Bi 0.94889 0.85439 0.00000 1.0000
  Mo  Mo 0.94889 0.85439 0.00000 1.0000
  Mo  Mo 0.94889 0.85439 0.00000 1.0000
  Bi  Bi 0.94889 0.85439 0.00000 1.0000
  Bi  Bi 0.04530 0.89874 0.36895 1.0000
  Bi  Bi 0.04530 0.89874 0.36895 1.0000
  Bi  Bi 0.03329 0.88092 0.63104 1.0000
  Bi  Bi 0.03329 0.88092 0.63104 1.0000
  Bi  Bi 0.02748 0.87802 0.00000 1.0000
  Bi  Bi 0.02748 0.87802 0.00000 1.0000
  Bi  Bi 0.02748 0.87802 0.00000 1.0000
  Bi  Bi 0.02748 0.87802 0.00000 1.0000
  Bi  Bi 0.06892 0.89874 0.36895 1.0000
  Bi  Bi 0.06892 0.89874 0.36895 1.0000
  Bi  Bi 0.05692 0.88092 0.63104 1.0000
  Bi  Bi 0.05692 0.88092 0.63104 1.0000
  Bi  Bi 0.05111 0.87802 0.00000 1.0000
  Bi  Bi 0.05111 0.87802 0.00000 1.0000
  Bi  Bi 0.05111 0.87802 0.00000 1.0000
  Bi  Bi 0.05111 0.87802 0.00000 1.0000
  Bi  Bi 0.09255 0.89874 0.36895 1.0000
  Bi  Bi 0.09255 0.89874 0.36895 1.0000
  Bi  Bi 0.08054 0.88092 0.63104 1.0000
  Bi  Bi 0.08054 0.88092 0.63104 1.0000
  Bi  Bi 0.07473 0.87802 0.00000 1.0000
  Bi  Bi 0.07473 0.87802 0.00000 1.0000
  Bi  Bi 0.07473 0.87802 0.00000 1.0000
  Bi  Bi 0.07473 0.87802 0.00000 1.0000
  Bi  Bi 0.11617 0.89874 0.36895 1.0000
  Bi  Bi 0.11617 0.89874 0.36895 1.0000
  Bi  Bi 0.10417 0.88092 0.63104 1.0000
  Bi  Bi 0.10417 0.88092 0.63104 1.0000
  Bi  Bi 0.09836 0.87802 0.00000 1.0000
  Bi  Bi 0.09836 0.87802 0.00000 1.0000
  Bi  Bi 0.09836 0.87802 0.00000 1.0000
  Bi  Bi 0.09836 0.87802 0.00000 1.0000
  Bi  Bi 0.13980 0.89874 0.36895 1.0000
  Bi  Bi 0.13980 0.89874 0.36895 1.0000
  Bi  Bi 0.12780 0.88092 0.63104 1.0000
  Bi  Bi 0.12780 0.88092 0.63104 1.0000
  Bi  Bi 0.12198 0.87802 0.00000 1.0000
  Bi  Bi 0.12198 0.87802 0.00000 1.0000
  Bi  Bi 0.12198 0.87802 0.00000 1.0000
  Bi  Bi 0.12198 0.87802 0.00000 1.0000
  Bi  Bi 0.16343 0.89874 0.36895 1.0000
  Bi  Bi 0.16343 0.89874 0.36895 1.0000
  Bi  Bi 0.15142 0.88092 0.63104 1.0000
  Bi  Bi 0.15142 0.88092 0.63104 1.0000
  Bi  Bi 0.14561 0.87802 0.00000 1.0000
  Bi  Bi 0.14561 0.87802 0.00000 1.0000
  Bi  Bi 0.14561 0.87802 0.00000 1.0000
  Bi  Bi 0.14561 0.87802 0.00000 1.0000
  Bi  Bi 0.18705 0.89874 0.36895 1.0000
  Bi  Bi 0.18705 0.89874 0.36895 1.0000
  Bi  Bi 0.17505 0.88092 0.63104 1.0000
  Bi  Bi 0.17505 0.88092 0.63104 1.0000
  Bi  Bi 0.16924 0.87802 0.00000 1.0000
  Bi  Bi 0.16924 0.87802 0.00000 1.0000
  Bi  Bi 0.16924 0.87802 0.00000 1.0000
  Bi  Bi 0.16924 0.87802 0.00000 1.0000
  Bi  Bi 0.21068 0.89874 0.36895 1.0000
  Bi  Bi 0.21068 0.89874 0.36895 1.0000
  Bi  Bi 0.19867 0.88092 0.63104 1.0000
  Bi  Bi 0.19867 0.88092 0.63104 1.0000
  Bi  Bi 0.19286 0.87802 0.00000 1.0000
  Bi  Bi 0.19286 0.87802 0.00000 1.0000
  Bi  Bi 0.19286 0.87802 0.00000 1.0000
  Bi  Bi 0.19286 0.87802 0.00000 1.0000
  Bi  Bi 0.23430 0.89874 0.36895 1.0000
  Bi  Bi 0.23430 0.89874 0.36895 1.0000
  Bi  Bi 0.22230 0.88092 0.63104 1.0000
  Bi  Bi 0.22230 0.88092 0.63104 1.0000
  Bi  Bi 0.21649 0.87802 0.00000 1.0000
  Bi  Bi 0.21649 0.87802 0.00000 1.0000
  Bi  Bi 0.21649 0.87802 0.00000 1.0000
  Bi  Bi 0.21649 0.87802 0.00000 1.0000
  Bi  Bi 0.25793 0.89874 0.36895 1.0000
  Bi  Bi 0.25793 0.89874 0.36895 1.0000
  Bi  Bi 0.24593 0.88092 0.63104 1.0000
  Bi  Bi 0.24593 0.88092 0.63104 1.0000
  Bi  Bi 0.24011 0.87802 0.00000 1.0000
  Bi  Bi 0.24011 0.87802 0.00000 1.0000
  Bi  Bi 0.24011 0.87802 0.00000 1.0000
  Bi  Bi 0.24011 0.87802 0.00000 1.0000
  Bi  Bi 0.28156 0.89874 0.36895 1.0000
  Bi  Bi 0.28156 0.89874 0.36895 1.0000
  Bi  Bi 0.26955 0.88092 0.63104 1.0000
  Bi  Bi 0.26955 0.88092 0.63104 1.0000
  Bi  Bi 0.26374 0.87802 0.00000 1.0000
  Bi  Bi 0.26374 0.87802 0.00000 1.0000
  Bi  Bi 0.26374 0.87802 0.00000 1.0000
  Bi  Bi 0.26374 0.87802 0.00000 1.0000
  Bi  Bi 0.30518 0.89874 0.36895 1.0000
  Bi  Bi 0.30518 0.89874 0.36895 1.0000
  Bi  Bi 0.29318 0.88092 0.63104 1.0000
  Bi  Bi 0.29318 0.88092 0.63104 1.0000
  Bi  Bi 0.28737 0.87802 0.00000 1.0000
  Bi  Bi 0.28737 0.87802 0.00000 1.0000
  Bi  Bi 0.28737 0.87802 0.00000 1.0000
  Bi  Bi 0.28737 0.87802 0.00000 1.0000
  Bi  Bi 0.32881 0.89874 0.36895 1.0000
  Bi  Bi 0.32881 0.89874 0.36895 1.0000
  Bi  Bi 0.31680 0.88092 0.63104 1.0000
  Bi  Bi 0.31680 0.88092 0.63104 1.0000
  Bi  Bi 0.31099 0.87802 0.00000 1.0000
  Bi  Bi 0.31099 0.87802 0.00000 1.0000
  Bi  Bi 0.31099 0.87802 0.00000 1.0000
  Bi  Bi 0.31099 0.87802 0.00000 1.0000
  Bi  Bi 0.35243 0.89874 0.36895 1.0000
  Bi  Bi 0.35243 0.89874 0.36895 1.0000
  Bi  Bi 0.34043 0.88092 0.63104 1.0000
  Bi  Bi 0.34043 0.88092 0.63104 1.0000
  Bi  Bi 0.33462 0.87802 0.00000 1.0000
  Bi  Bi 0.33462 0.87802 0.00000 1.0000
  Bi  Bi 0.33462 0.87802 0.00000 1.0000
  Bi  Bi 0.33462 0.87802 0.00000 1.0000
  Bi  Bi 0.37606 0.89874 0.36895 1.0000
  Bi  Bi 0.37606 0.89874 0.36895 1.0000
  Bi  Bi 0.36406 0.88092 0.63104 1.0000
  Bi  Bi 0.36406 0.88092 0.63104 1.0000
  Bi  Bi 0.35824 0.87802 0.00000 1.0000
  Bi  Bi 0.35824 0.87802 0.00000 1.0000
  Bi  Bi 0.35824 0.87802 0.00000 1.0000
  Bi  Bi 0.35824 0.87802 0.00000 1.0000
  Bi  Bi 0.39968 0.89874 0.36895 1.0000
  Bi  Bi 0.39968 0.89874 0.36895 1.0000
  Bi  Bi 0.38768 0.88092 0.63104 1.0000
  Bi  Bi 0.38768 0.88092 0.63104 1.0000
  Bi  Bi 0.38187 0.87802 0.00000 1.0000
  Bi  Bi 0.38187 0.87802 0.00000 1.0000
  Bi  Bi 0.38187 0.87802 0.00000 1.0000
  Bi  Bi 0.38187 0.87802 0.00000 1.0000
  Bi  Bi 0.42331 0.89874 0.36895 1.0000
  Bi  Bi 0.42331 0.89874 0.36895 1.0000
  Bi  Bi 0.41131 0.88092 0.63104 1.0000
  Bi  Bi 0.41131 0.88092 0.63104 1.0000
  Bi  Bi 0.40550 0.87802 0.00000 1.0000
  Bi  Bi 0.40550 0.87802 0.00000 1.0000
  Bi  Bi 0.40550 0.87802 0.00000 1.0000
  Bi  Bi 0.40550 0.87802 0.00000 1.0000
  Bi  Bi 0.44694 0.89874 0.36895 1.0000
  Bi  Bi 0.44694 0.89874 0.36895 1.0000
  Bi  Bi 0.43493 0.88092 0.63104 1.0000
  Bi  Bi 0.43493 0.88092 0.63104 1.0000
  Bi  Bi 0.42912 0.87802 0.00000 1.0000
  Bi  Bi 0.42912 0.87802 0.00000 1.0000
  Bi  Bi 0.42912 0.87802 0.00000 1.0000
  Bi  Bi 0.42912 0.87802 0.00000 1.0000
  Bi  Bi 0.47056 0.89874 0.36895 1.0000
  Bi  Bi 0.47056 0.89874 0.36895 1.0000
  Bi  Bi 0.45856 0.88092 0.63104 1.0000
  Bi  Bi 0.45856 0.88092 0.63104 1.0000
  Bi  Bi 0.45275 0.87802 0.00000 1.0000
  Bi  Bi 0.45275 0.87802 0.00000 1.0000
  Bi  Bi 0.45275 0.87802 0.00000 1.0000
  Bi  Bi 0.45275 0.87802 0.00000 1.0000
  Bi  Bi 0.49419 0.89874 0.36895 1.0000
  Bi  Bi 0.49419 0.89874 0.36895 1.0000
  Bi  Bi 0.48219 0.88092 0.63104 1.0000
  Bi  Bi 0.48219 0.88092 0.63104 1.0000
  Bi  Bi 0.47637 0.87802 0.00000 1.0000
  Bi  Bi 0.47637 0.87802 0.00000 1.0000
  Bi  Bi 0.47637 0.87802 0.00000 1.0000
  Bi  Bi 0.47637 0.87802 0.00000 1.0000
  Bi  Bi 0.51781 0.89874 0.36895 1.0000
  Bi  Bi 0.51781 0.89874 0.36895 1.0000
  Bi  Bi 0.50581 0.88092 0.63104 1.0000
  Bi  Bi 0.50581 0.88092 0.63104 1.0000
  Bi  Bi 0.50000 0.87802 0.00000 1.0000
  Bi  Bi 0.50000 0.87802 0.00000 1.0000
  Bi  Bi 0.50000 0.87802 0.00000 1.0000
  Bi  Bi 0.50000 0.87802 0.00000 1.0000
  Bi  Bi 0.54144 0.89874 0.36895 1.0000
  Bi  Bi 0.54144 0.89874 0.36895 1.0000
  Bi  Bi 0.52944 0.88092 0.63104 1.0000
  Bi  Bi 0.52944 0.88092 0.63104 1.0000
  Bi  Bi 0.52363 0.87802 0.00000 1.0000
  Bi  Bi 0.52363 0.87802 0.00000 1.0000
  Bi  Bi 0.52363 0.87802 0.00000 1.0000
  Bi  Bi 0.52363 0.87802 0.00000 1.0000
  Bi  Bi 0.56507 0.89874 0.36895 1.0000
  Bi  Bi 0.56507 0.89874 0.36895 1.0000
  Bi  Bi 0.55306 0.88092 0.63104 1.0000
  Bi  Bi 0.55306 0.88092 0.63104 1.0000
  Bi  Bi 0.54725 0.87802 0.00000 1.0000
  Bi  Bi 0.54725 0.87802 0.00000 1.0000
  Bi  Bi 0.54725 0.87802 0.00000 1.0000
  Bi  Bi 0.54725 0.87802 0.00000 1.0000
  Bi  Bi 0.58869 0.89874 0.36895 1.0000
  Bi  Bi 0.58869 0.89874 0.36895 1.0000
  Bi  Bi 0.57669 0.88092 0.63104 1.0000
  Bi  Bi 0.57669 0.88092 0.63104 1.0000
  Bi  Bi 0.57088 0.87802 0.00000 1.0000
  Bi  Bi 0.57088 0.87802 0.00000 1.0000
  Bi  Bi 0.57088 0.87802 0.00000 1.0000
  Bi  Bi 0.57088 0.87802 0.00000 1.0000
  Bi  Bi 0.61232 0.89874 0.36895 1.0000
  Bi  Bi 0.61232 0.89874 0.36895 1.0000
  Bi  Bi 0.60032 0.88092 0.63104 1.0000
  Bi  Bi 0.60032 0.88092 0.63104 1.0000
  Bi  Bi 0.59450 0.87802 0.00000 1.0000
  Bi  Bi 0.59450 0.87802 0.00000 1.0000
  Bi  Bi 0.59450 0.87802 0.00000 1.0000
  Bi  Bi 0.59450 0.87802 0.00000 1.0000
  Bi  Bi 0.63594 0.89874 0.36895 1.0000
  Bi  Bi 0.63594 0.89874 0.36895 1.0000
  Bi  Bi 0.62394 0.88092 0.63104 1.0000
  Bi  Bi 0.62394 0.88092 0.63104 1.0000
  Bi  Bi 0.61813 0.87802 0.00000 1.0000
  Bi  Bi 0.61813 0.87802 0.00000 1.0000
  Bi  Bi 0.61813 0.87802 0.00000 1.0000
  Bi  Bi 0.61813 0.87802 0.00000 1.0000
  Bi  Bi 0.65957 0.89874 0.36895 1.0000
  Bi  Bi 0.65957 0.89874 0.36895 1.0000
  Bi  Bi 0.64757 0.88092 0.63104 1.0000
  Bi  Bi 0.64757 0.88092 0.63104 1.0000
  Bi  Bi 0.64176 0.87802 0.00000 1.0000
  Bi  Bi 0.64176 0.87802 0.00000 1.0000
  Bi  Bi 0.64176 0.87802 0.00000 1.0000
  Bi  Bi 0.64176 0.87802 0.00000 1.0000
  Bi  Bi 0.68320 0.89874 0.36895 1.0000
  Bi  Bi 0.68320 0.89874 0.36895 1.0000
  Bi  Bi 0.67119 0.88092 0.63104 1.0000
  Bi  Bi 0.67119 0.88092 0.63104 1.0000
  Bi  Bi 0.66538 0.87802 0.00000 1.0000
  Bi  Bi 0.66538 0.87802 0.00000 1.0000
  Bi  Bi 0.66538 0.87802 0.00000 1.0000
  Bi  Bi 0.66538 0.87802 0.00000 1.0000
  Bi  Bi 0.70682 0.89874 0.36895 1.0000
  Bi  Bi 0.70682 0.89874 0.36895 1.0000
  Bi  Bi 0.69482 0.88092 0.63104 1.0000
  Bi  Bi 0.69482 0.88092 0.63104 1.0000
  Bi  Bi 0.68901 0.87802 0.00000 1.0000
  Bi  Bi 0.68901 0.87802 0.00000 1.0000
  Bi  Bi 0.68901 0.87802 0.00000 1.0000
  Bi  Bi 0.68901 0.87802 0.00000 1.0000
  Bi  Bi 0.73045 0.89874 0.36895 1.0000
  Bi  Bi 0.73045 0.89874 0.36895 1.0000
  Bi  Bi 0.71844 0.88092 0.63104 1.0000
  Bi  Bi 0.71844 0.88092 0.63104 1.0000
  Bi  Bi 0.71263 0.87802 0.00000 1.0000
  Bi  Bi 0.71263 0.87802 0.00000 1.0000
  Bi  Bi 0.71263 0.87802 0.00000 1.0000
  Bi  Bi 0.71263 0.87802 0.00000 1.0000
  Bi  Bi 0.75407 0.89874 0.36895 1.0000
  Bi  Bi 0.75407 0.89874 0.36895 1.0000
  Bi  Bi 0.74207 0.88092 0.63104 1.0000
  Bi  Bi 0.74207 0.88092 0.63104 1.0000
  Bi  Bi 0.73626 0.87802 0.00000 1.0000
  Bi  Bi 0.73626 0.87802 0.00000 1.0000
  Mo  Mo 0.73626 0.87802 0.00000 1.0000
  Bi  Bi 0.73626 0.87802 0.00000 1.0000
  Bi  Bi 0.77770 0.89874 0.36895 1.0000
  Bi  Bi 0.77770 0.89874 0.36895 1.0000
  Bi  Bi 0.76570 0.88092 0.63104 1.0000
  Bi  Bi 0.76570 0.88092 0.63104 1.0000
  Mo  Mo 0.75989 0.87802 0.00000 1.0000
  Mo  Mo 0.75989 0.87802 0.00000 1.0000
  Mo  Mo 0.75989 0.87802 0.00000 1.0000
  Mo  Mo 0.75989 0.87802 0.00000 1.0000
  Bi  Bi 0.80133 0.89874 0.36895 1.0000
  Bi  Bi 0.80133 0.89874 0.36895 1.0000
  Bi  Bi 0.78932 0.88092 0.63104 1.0000
  Bi  Bi 0.78932 0.88092 0.63104 1.0000
  Mo  Mo 0.78351 0.87802 0.00000 1.0000
  Mo  Mo 0.78351 0.87802 0.00000 1.0000
  Si  Si 0.78351 0.87802 0.00000 1.0000
  Mo  Mo 0.78351 0.87802 0.00000 1.0000
  Mo  Mo 0.82495 0.89874 0.36895 1.0000
  Bi  Bi 0.82495 0.89874 0.36895 1.0000
  Mo  Mo 0.81295 0.88092 0.63104 1.0000
  Bi  Bi 0.81295 0.88092 0.63104 1.0000
  Si  Si 0.80714 0.87802 0.00000 1.0000
  Mo  Mo 0.80714 0.87802 0.00000 1.0000
  Si  Si 0.80714 0.87802 0.00000 1.0000
  Mo  Mo 0.80714 0.87802 0.00000 1.0000
  Mo  Mo 0.84858 0.89874 0.36895 1.0000
  Bi  Bi 0.84858 0.89874 0.36895 1.0000
  Mo  Mo 0.83657 0.88092 0.63104 1.0000
  Bi  Bi 0.83657 0.88092 0.63104 1.0000
  Si  Si 0.83076 0.87802 0.00000 1.0000
  Si  Si 0.83076 0.87802 0.00000 1.0000
  Rb  Rb 0.83076 0.87802 0.00000 1.0000
  Si  Si 0.83076 0.87802 0.00000 1.0000
  Mo  Mo 0.87220 0.89874 0.36895 1.0000
  Bi  Bi 0.87220 0.89874 0.36895 1.0000
  Mo  Mo 0.86020 0.88092 0.63104 1.0000
  Bi  Bi 0.86020 0.88092 0.63104 1.0000
  Rb  Rb 0.85439 0.87802 0.00000 1.0000
  Si  Si 0.85439 0.87802 0.00000 1.0000
  Dy  Dy 0.85439 0.87802 0.00000 1.0000
  Si  Si 0.85439 0.87802 0.00000 1.0000
  Mo  Mo 0.89583 0.89874 0.36895 1.0000
  Bi  Bi 0.89583 0.89874 0.36895 1.0000
  Mo  Mo 0.88383 0.88092 0.63104 1.0000
  Mo  Mo 0.88383 0.88092 0.63104 1.0000
  Rb  Rb 0.87802 0.87802 0.00000 1.0000
  Si  Si 0.87802 0.87802 0.00000 1.0000
  Dy  Dy 0.87802 0.87802 0.00000 1.0000
  Rb  Rb 0.87802 0.87802 0.00000 1.0000
  Mo  Mo 0.91946 0.89874 0.36895 1.0000
  Bi  Bi 0.91946 0.89874 0.36895 1.0000
  Mo  Mo 0.90745 0.88092 0.63104 1.0000
  Bi  Bi 0.90745 0.88092 0.63104 1.0000
  Si  Si 0.90164 0.87802 0.00000 1.0000
  Si  Si 0.90164 0.87802 0.00000 1.0000
  Dy  Dy 0.90164 0.87802 0.00000 1.0000
  Rb  Rb 0.90164 0.87802 0.00000 1.0000
  Mo  Mo 0.94308 0.89874 0.36895 1.0000
  Bi  Bi 0.94308 0.89874 0.36895 1.0000
  Mo  Mo 0.93108 0.88092 0.63104 1.0000
  Bi  Bi 0.93108 0.88092 0.63104 1.0000
  Si  Si 0.92527 0.87802 0.00000 1.0000
  Si  Si 0.92527 0.87802 0.00000 1.0000
  Rb  Rb 0.92527 0.87802 0.00000 1.0000
  Si  Si 0.92527 0.87802 0.00000 1.0000
  Bi  Bi 0.96671 0.89874 0.36895 1.0000
  Bi  Bi 0.96671 0.89874 0.36895 1.0000
  Bi  Bi 0.95470 0.88092 0.63104 1.0000
  Bi  Bi 0.95470 0.88092 0.63104 1.0000
  Bi  Bi 0.94889 0.87802 0.00000 1.0000
  Mo  Mo 0.94889 0.87802 0.00000 1.0000
  Mo  Mo 0.94889 0.87802 0.00000 1.0000
  Bi  Bi 0.94889 0.87802 0.00000 1.0000
  Bi  Bi 0.04530 0.92236 0.36895 1.0000
  Bi  Bi 0.04530 0.92236 0.36895 1.0000
  Bi  Bi 0.03329 0.90455 0.63104 1.0000
  Bi  Bi 0.03329 0.90455 0.63104 1.0000
  Bi  Bi 0.02748 0.90164 0.00000 1.0000
  Bi  Bi 0.02748 0.90164 0.00000 1.0000
  Bi  Bi 0.02748 0.90164 0.00000 1.0000
  Bi  Bi 0.02748 0.90164 0.00000 1.0000
  Bi  Bi 0.06892 0.92236 0.36895 1.0000
  Bi  Bi 0.06892 0.92236 0.36895 1.0000
  Bi  Bi 0.05692 0.90455 0.63104 1.0000
  Bi  Bi 0.05692 0.90455 0.63104 1.0000
  Bi  Bi 0.05111 0.90164 0.00000 1.0000
  Bi  Bi 0.05111 0.90164 0.00000 1.0000
  Bi  Bi 0.05111 0.90164 0.00000 1.0000
  Bi  Bi 0.05111 0.90164 0.00000 1.0000
  Bi  Bi 0.09255 0.92236 0.36895 1.0000
  Bi  Bi 0.09255 0.92236 0.36895 1.0000
  Bi  Bi 0.08054 0.90455 0.63104 1.0000
  Bi  Bi 0.08054 0.90455 0.63104 1.0000
  Bi  Bi 0.07473 0.90164 0.00000 1.0000
  Bi  Bi 0.07473 0.90164 0.00000 1.0000
  Bi  Bi 0.07473 0.90164 0.00000 1.0000
  Bi  Bi 0.07473 0.90164 0.00000 1.0000
  Bi  Bi 0.11617 0.92236 0.36895 1.0000
  Bi  Bi 0.11617 0.92236 0.36895 1.0000
  Bi  Bi 0.10417 0.90455 0.63104 1.0000
  Bi  Bi 0.10417 0.90455 0.63104 1.0000
  Bi  Bi 0.09836 0.90164 0.00000 1.0000
  Bi  Bi 0.09836 0.90164 0.00000 1.0000
  Bi  Bi 0.09836 0.90164 0.00000 1.0000
  Bi  Bi 0.09836 0.90164 0.00000 1.0000
  Bi  Bi 0.13980 0.92236 0.36895 1.0000
  Bi  Bi 0.13980 0.92236 0.36895 1.0000
  Bi  Bi 0.12780 0.90455 0.63104 1.0000
  Bi  Bi 0.12780 0.90455 0.63104 1.0000
  Bi  Bi 0.12198 0.90164 0.00000 1.0000
  Bi  Bi 0.12198 0.90164 0.00000 1.0000
  Bi  Bi 0.12198 0.90164 0.00000 1.0000
  Bi  Bi 0.12198 0.90164 0.00000 1.0000
  Bi  Bi 0.16343 0.92236 0.36895 1.0000
  Bi  Bi 0.16343 0.92236 0.36895 1.0000
  Bi  Bi 0.15142 0.90455 0.63104 1.0000
  Bi  Bi 0.15142 0.90455 0.63104 1.0000
  Bi  Bi 0.14561 0.90164 0.00000 1.0000
  Bi  Bi 0.14561 0.90164 0.00000 1.0000
  Bi  Bi 0.14561 0.90164 0.00000 1.0000
  Bi  Bi 0.14561 0.90164 0.00000 1.0000
  Bi  Bi 0.18705 0.92236 0.36895 1.0000
  Bi  Bi 0.18705 0.92236 0.36895 1.0000
  Bi  Bi 0.17505 0.90455 0.63104 1.0000
  Bi  Bi 0.17505 0.90455 0.63104 1.0000
  Bi  Bi 0.16924 0.90164 0.00000 1.0000
  Bi  Bi 0.16924 0.90164 0.00000 1.0000
  Bi  Bi 0.16924 0.90164 0.00000 1.0000
  Bi  Bi 0.16924 0.90164 0.00000 1.0000
  Bi  Bi 0.21068 0.92236 0.36895 1.0000
  Bi  Bi 0.21068 0.92236 0.36895 1.0000
  Bi  Bi 0.19867 0.90455 0.63104 1.0000
  Bi  Bi 0.19867 0.90455 0.63104 1.0000
  Bi  Bi 0.19286 0.90164 0.00000 1.0000
  Bi  Bi 0.19286 0.90164 0.00000 1.0000
  Bi  Bi 0.19286 0.90164 0.00000 1.0000
  Bi  Bi 0.19286 0.90164 0.00000 1.0000
  Bi  Bi 0.23430 0.92236 0.36895 1.0000
  Bi  Bi 0.23430 0.92236 0.36895 1.0000
  Bi  Bi 0.22230 0.90455 0.63104 1.0000
  Bi  Bi 0.22230 0.90455 0.63104 1.0000
  Bi  Bi 0.21649 0.90164 0.00000 1.0000
  Bi  Bi 0.21649 0.90164 0.00000 1.0000
  Bi  Bi 0.21649 0.90164 0.00000 1.0000
  Bi  Bi 0.21649 0.90164 0.00000 1.0000
  Bi  Bi 0.25793 0.92236 0.36895 1.0000
  Bi  Bi 0.25793 0.92236 0.36895 1.0000
  Bi  Bi 0.24593 0.90455 0.63104 1.0000
  Bi  Bi 0.24593 0.90455 0.63104 1.0000
  Bi  Bi 0.24011 0.90164 0.00000 1.0000
  Bi  Bi 0.24011 0.90164 0.00000 1.0000
  Bi  Bi 0.24011 0.90164 0.00000 1.0000
  Bi  Bi 0.24011 0.90164 0.00000 1.0000
  Bi  Bi 0.28156 0.92236 0.36895 1.0000
  Bi  Bi 0.28156 0.92236 0.36895 1.0000
  Bi  Bi 0.26955 0.90455 0.63104 1.0000
  Bi  Bi 0.26955 0.90455 0.63104 1.0000
  Bi  Bi 0.26374 0.90164 0.00000 1.0000
  Bi  Bi 0.26374 0.90164 0.00000 1.0000
  Bi  Bi 0.26374 0.90164 0.00000 1.0000
  Bi  Bi 0.26374 0.90164 0.00000 1.0000
  Bi  Bi 0.30518 0.92236 0.36895 1.0000
  Bi  Bi 0.30518 0.92236 0.36895 1.0000
  Bi  Bi 0.29318 0.90455 0.63104 1.0000
  Bi  Bi 0.29318 0.90455 0.63104 1.0000
  Bi  Bi 0.28737 0.90164 0.00000 1.0000
  Bi  Bi 0.28737 0.90164 0.00000 1.0000
  Bi  Bi 0.28737 0.90164 0.00000 1.0000
  Bi  Bi 0.28737 0.90164 0.00000 1.0000
  Bi  Bi 0.32881 0.92236 0.36895 1.0000
  Bi  Bi 0.32881 0.92236 0.36895 1.0000
  Bi  Bi 0.31680 0.90455 0.63104 1.0000
  Bi  Bi 0.31680 0.90455 0.63104 1.0000
  Bi  Bi 0.31099 0.90164 0.00000 1.0000
  Bi  Bi 0.31099 0.90164 0.00000 1.0000
  Bi  Bi 0.31099 0.90164 0.00000 1.0000
  Bi  Bi 0.31099 0.90164 0.00000 1.0000
  Bi  Bi 0.35243 0.92236 0.36895 1.0000
  Bi  Bi 0.35243 0.92236 0.36895 1.0000
  Bi  Bi 0.34043 0.90455 0.63104 1.0000
  Bi  Bi 0.34043 0.90455 0.63104 1.0000
  Bi  Bi 0.33462 0.90164 0.00000 1.0000
  Bi  Bi 0.33462 0.90164 0.00000 1.0000
  Bi  Bi 0.33462 0.90164 0.00000 1.0000
  Bi  Bi 0.33462 0.90164 0.00000 1.0000
  Bi  Bi 0.37606 0.92236 0.36895 1.0000
  Bi  Bi 0.37606 0.92236 0.36895 1.0000
  Bi  Bi 0.36406 0.90455 0.63104 1.0000
  Bi  Bi 0.36406 0.90455 0.63104 1.0000
  Bi  Bi 0.35824 0.90164 0.00000 1.0000
  Bi  Bi 0.35824 0.90164 0.00000 1.0000
  Bi  Bi 0.35824 0.90164 0.00000 1.0000
  Bi  Bi 0.35824 0.90164 0.00000 1.0000
  Bi  Bi 0.39968 0.92236 0.36895 1.0000
  Bi  Bi 0.39968 0.92236 0.36895 1.0000
  Bi  Bi 0.38768 0.90455 0.63104 1.0000
  Bi  Bi 0.38768 0.90455 0.63104 1.0000
  Bi  Bi 0.38187 0.90164 0.00000 1.0000
  Bi  Bi 0.38187 0.90164 0.00000 1.0000
  Bi  Bi 0.38187 0.90164 0.00000 1.0000
  Bi  Bi 0.38187 0.90164 0.00000 1.0000
  Bi  Bi 0.42331 0.92236 0.36895 1.0000
  Bi  Bi 0.42331 0.92236 0.36895 1.0000
  Bi  Bi 0.41131 0.90455 0.63104 1.0000
  Bi  Bi 0.41131 0.90455 0.63104 1.0000
  Bi  Bi 0.40550 0.90164 0.00000 1.0000
  Bi  Bi 0.40550 0.90164 0.00000 1.0000
  Bi  Bi 0.40550 0.90164 0.00000 1.0000
  Bi  Bi 0.40550 0.90164 0.00000 1.0000
  Bi  Bi 0.44694 0.92236 0.36895 1.0000
  Bi  Bi 0.44694 0.92236 0.36895 1.0000
  Bi  Bi 0.43493 0.90455 0.63104 1.0000
  Bi  Bi 0.43493 0.90455 0.63104 1.0000
  Bi  Bi 0.42912 0.90164 0.00000 1.0000
  Bi  Bi 0.42912 0.90164 0.00000 1.0000
  Bi  Bi 0.42912 0.90164 0.00000 1.0000
  Bi  Bi 0.42912 0.90164 0.00000 1.0000
  Bi  Bi 0.47056 0.92236 0.36895 1.0000
  Bi  Bi 0.47056 0.92236 0.36895 1.0000
  Bi  Bi 0.45856 0.90455 0.63104 1.0000
  Bi  Bi 0.45856 0.90455 0.63104 1.0000
  Bi  Bi 0.45275 0.90164 0.00000 1.0000
  Bi  Bi 0.45275 0.90164 0.00000 1.0000
  Bi  Bi 0.45275 0.90164 0.00000 1.0000
  Bi  Bi 0.45275 0.90164 0.00000 1.0000
  Bi  Bi 0.49419 0.92236 0.36895 1.0000
  Bi  Bi 0.49419 0.92236 0.36895 1.0000
  Bi  Bi 0.48219 0.90455 0.63104 1.0000
  Bi  Bi 0.48219 0.90455 0.63104 1.0000
  Bi  Bi 0.47637 0.90164 0.00000 1.0000
  Bi  Bi 0.47637 0.90164 0.00000 1.0000
  Bi  Bi 0.47637 0.90164 0.00000 1.0000
  Bi  Bi 0.47637 0.90164 0.00000 1.0000
  Bi  Bi 0.51781 0.92236 0.36895 1.0000
  Bi  Bi 0.51781 0.92236 0.36895 1.0000
  Bi  Bi 0.50581 0.90455 0.63104 1.0000
  Bi  Bi 0.50581 0.90455 0.63104 1.0000
  Bi  Bi 0.50000 0.90164 0.00000 1.0000
  Bi  Bi 0.50000 0.90164 0.00000 1.0000
  Bi  Bi 0.50000 0.90164 0.00000 1.0000
  Bi  Bi 0.50000 0.90164 0.00000 1.0000
  Bi  Bi 0.54144 0.92236 0.36895 1.0000
  Bi  Bi 0.54144 0.92236 0.36895 1.0000
  Bi  Bi 0.52944 0.90455 0.63104 1.0000
  Bi  Bi 0.52944 0.90455 0.63104 1.0000
  Bi  Bi 0.52363 0.90164 0.00000 1.0000
  Bi  Bi 0.52363 0.90164 0.00000 1.0000
  Bi  Bi 0.52363 0.90164 0.00000 1.0000
  Bi  Bi 0.52363 0.90164 0.00000 1.0000
  Bi  Bi 0.56507 0.92236 0.36895 1.0000
  Bi  Bi 0.56507 0.92236 0.36895 1.0000
  Bi  Bi 0.55306 0.90455 0.63104 1.0000
  Bi  Bi 0.55306 0.90455 0.63104 1.0000
  Bi  Bi 0.54725 0.90164 0.00000 1.0000
  Bi  Bi 0.54725 0.90164 0.00000 1.0000
  Bi  Bi 0.54725 0.90164 0.00000 1.0000
  Bi  Bi 0.54725 0.90164 0.00000 1.0000
  Bi  Bi 0.58869 0.92236 0.36895 1.0000
  Bi  Bi 0.58869 0.92236 0.36895 1.0000
  Bi  Bi 0.57669 0.90455 0.63104 1.0000
  Bi  Bi 0.57669 0.90455 0.63104 1.0000
  Bi  Bi 0.57088 0.90164 0.00000 1.0000
  Bi  Bi 0.57088 0.90164 0.00000 1.0000
  Bi  Bi 0.57088 0.90164 0.00000 1.0000
  Bi  Bi 0.57088 0.90164 0.00000 1.0000
  Bi  Bi 0.61232 0.92236 0.36895 1.0000
  Bi  Bi 0.61232 0.92236 0.36895 1.0000
  Bi  Bi 0.60032 0.90455 0.63104 1.0000
  Bi  Bi 0.60032 0.90455 0.63104 1.0000
  Bi  Bi 0.59450 0.90164 0.00000 1.0000
  Bi  Bi 0.59450 0.90164 0.00000 1.0000
  Bi  Bi 0.59450 0.90164 0.00000 1.0000
  Bi  Bi 0.59450 0.90164 0.00000 1.0000
  Bi  Bi 0.63594 0.92236 0.36895 1.0000
  Bi  Bi 0.63594 0.92236 0.36895 1.0000
  Bi  Bi 0.62394 0.90455 0.63104 1.0000
  Bi  Bi 0.62394 0.90455 0.63104 1.0000
  Bi  Bi 0.61813 0.90164 0.00000 1.0000
  Bi  Bi 0.61813 0.90164 0.00000 1.0000
  Bi  Bi 0.61813 0.90164 0.00000 1.0000
  Bi  Bi 0.61813 0.90164 0.00000 1.0000
  Bi  Bi 0.65957 0.92236 0.36895 1.0000
  Bi  Bi 0.65957 0.92236 0.36895 1.0000
  Bi  Bi 0.64757 0.90455 0.63104 1.0000
  Bi  Bi 0.64757 0.90455 0.63104 1.0000
  Bi  Bi 0.64176 0.90164 0.00000 1.0000
  Bi  Bi 0.64176 0.90164 0.00000 1.0000
  Bi  Bi 0.64176 0.90164 0.00000 1.0000
  Bi  Bi 0.64176 0.90164 0.00000 1.0000
  Bi  Bi 0.68320 0.92236 0.36895 1.0000
  Bi  Bi 0.68320 0.92236 0.36895 1.0000
  Bi  Bi 0.67119 0.90455 0.63104 1.0000
  Bi  Bi 0.67119 0.90455 0.63104 1.0000
  Bi  Bi 0.66538 0.90164 0.00000 1.0000
  Bi  Bi 0.66538 0.90164 0.00000 1.0000
  Bi  Bi 0.66538 0.90164 0.00000 1.0000
  Bi  Bi 0.66538 0.90164 0.00000 1.0000
  Bi  Bi 0.70682 0.92236 0.36895 1.0000
  Bi  Bi 0.70682 0.92236 0.36895 1.0000
  Bi  Bi 0.69482 0.90455 0.63104 1.0000
  Bi  Bi 0.69482 0.90455 0.63104 1.0000
  Bi  Bi 0.68901 0.90164 0.00000 1.0000
  Bi  Bi 0.68901 0.90164 0.00000 1.0000
  Bi  Bi 0.68901 0.90164 0.00000 1.0000
  Bi  Bi 0.68901 0.90164 0.00000 1.0000
  Bi  Bi 0.73045 0.92236 0.36895 1.0000
  Bi  Bi 0.73045 0.92236 0.36895 1.0000
  Bi  Bi 0.71844 0.90455 0.63104 1.0000
  Bi  Bi 0.71844 0.90455 0.63104 1.0000
  Bi  Bi 0.71263 0.90164 0.00000 1.0000
  Bi  Bi 0.71263 0.90164 0.00000 1.0000
  Bi  Bi 0.71263 0.90164 0.00000 1.0000
  Bi  Bi 0.71263 0.90164 0.00000 1.0000
  Bi  Bi 0.75407 0.92236 0.36895 1.0000
  Bi  Bi 0.75407 0.92236 0.36895 1.0000
  Bi  Bi 0.74207 0.90455 0.63104 1.0000
  Bi  Bi 0.74207 0.90455 0.63104 1.0000
  Bi  Bi 0.73626 0.90164 0.00000 1.0000
  Bi  Bi 0.73626 0.90164 0.00000 1.0000
  Mo  Mo 0.73626 0.90164 0.00000 1.0000
  Bi  Bi 0.73626 0.90164 0.00000 1.0000
  Bi  Bi 0.77770 0.92236 0.36895 1.0000
  Bi  Bi 0.77770 0.92236 0.36895 1.0000
  Bi  Bi 0.76570 0.90455 0.63104 1.0000
  Bi  Bi 0.76570 0.90455 0.63104 1.0000
  Mo  Mo 0.75989 0.90164 0.00000 1.0000
  Mo  Mo 0.75989 0.90164 0.00000 1.0000
  Mo  Mo 0.75989 0.90164 0.00000 1.0000
  Mo  Mo 0.75989 0.90164 0.00000 1.0000
  Bi  Bi 0.80133 0.92236 0.36895 1.0000
  Bi  Bi 0.80133 0.92236 0.36895 1.0000
  Mo  Mo 0.78932 0.90455 0.63104 1.0000
  Bi  Bi 0.78932 0.90455 0.63104 1.0000
  Mo  Mo 0.78351 0.90164 0.00000 1.0000
  Mo  Mo 0.78351 0.90164 0.00000 1.0000
  Si  Si 0.78351 0.90164 0.00000 1.0000
  Mo  Mo 0.78351 0.90164 0.00000 1.0000
  Mo  Mo 0.82495 0.92236 0.36895 1.0000
  Bi  Bi 0.82495 0.92236 0.36895 1.0000
  Mo  Mo 0.81295 0.90455 0.63104 1.0000
  Bi  Bi 0.81295 0.90455 0.63104 1.0000
  Si  Si 0.80714 0.90164 0.00000 1.0000
  Mo  Mo 0.80714 0.90164 0.00000 1.0000
  Si  Si 0.80714 0.90164 0.00000 1.0000
  Mo  Mo 0.80714 0.90164 0.00000 1.0000
  Mo  Mo 0.84858 0.92236 0.36895 1.0000
  Bi  Bi 0.84858 0.92236 0.36895 1.0000
  Mo  Mo 0.83657 0.90455 0.63104 1.0000
  Bi  Bi 0.83657 0.90455 0.63104 1.0000
  Si  Si 0.83076 0.90164 0.00000 1.0000
  Si  Si 0.83076 0.90164 0.00000 1.0000
  Rb  Rb 0.83076 0.90164 0.00000 1.0000
  Si  Si 0.83076 0.90164 0.00000 1.0000
  Mo  Mo 0.87220 0.92236 0.36895 1.0000
  Bi  Bi 0.87220 0.92236 0.36895 1.0000
  Mo  Mo 0.86020 0.90455 0.63104 1.0000
  Bi  Bi 0.86020 0.90455 0.63104 1.0000
  Si  Si 0.85439 0.90164 0.00000 1.0000
  Si  Si 0.85439 0.90164 0.00000 1.0000
  Dy  Dy 0.85439 0.90164 0.00000 1.0000
  Si  Si 0.85439 0.90164 0.00000 1.0000
  Mo  Mo 0.89583 0.92236 0.36895 1.0000
  Bi  Bi 0.89583 0.92236 0.36895 1.0000
  Mo  Mo 0.88383 0.90455 0.63104 1.0000
  Bi  Bi 0.88383 0.90455 0.63104 1.0000
  Rb  Rb 0.87802 0.90164 0.00000 1.0000
  Si  Si 0.87802 0.90164 0.00000 1.0000
  Dy  Dy 0.87802 0.90164 0.00000 1.0000
  Rb  Rb 0.87802 0.90164 0.00000 1.0000
  Mo  Mo 0.91946 0.92236 0.36895 1.0000
  Bi  Bi 0.91946 0.92236 0.36895 1.0000
  Mo  Mo 0.90745 0.90455 0.63104 1.0000
  Bi  Bi 0.90745 0.90455 0.63104 1.0000
  Si  Si 0.90164 0.90164 0.00000 1.0000
  Si  Si 0.90164 0.90164 0.00000 1.0000
  Dy  Dy 0.90164 0.90164 0.00000 1.0000
  Rb  Rb 0.90164 0.90164 0.00000 1.0000
  Mo  Mo 0.94308 0.92236 0.36895 1.0000
  Bi  Bi 0.94308 0.92236 0.36895 1.0000
  Mo  Mo 0.93108 0.90455 0.63104 1.0000
  Bi  Bi 0.93108 0.90455 0.63104 1.0000
  Mo  Mo 0.92527 0.90164 0.00000 1.0000
  Si  Si 0.92527 0.90164 0.00000 1.0000
  Dy  Dy 0.92527 0.90164 0.00000 1.0000
  Si  Si 0.92527 0.90164 0.00000 1.0000
  Bi  Bi 0.96671 0.92236 0.36895 1.0000
  Bi  Bi 0.96671 0.92236 0.36895 1.0000
  Bi  Bi 0.95470 0.90455 0.63104 1.0000
  Bi  Bi 0.95470 0.90455 0.63104 1.0000
  Bi  Bi 0.94889 0.90164 0.00000 1.0000
  Bi  Bi 0.94889 0.90164 0.00000 1.0000
  Mo  Mo 0.94889 0.90164 0.00000 1.0000
  Bi  Bi 0.94889 0.90164 0.00000 1.0000
  Bi  Bi 0.04530 0.94599 0.36895 1.0000
  Bi  Bi 0.04530 0.94599 0.36895 1.0000
  Bi  Bi 0.03329 0.92817 0.63104 1.0000
  Bi  Bi 0.03329 0.92817 0.63104 1.0000
  Bi  Bi 0.02748 0.92527 0.00000 1.0000
  Bi  Bi 0.02748 0.92527 0.00000 1.0000
  Bi  Bi 0.02748 0.92527 0.00000 1.0000
  Bi  Bi 0.02748 0.92527 0.00000 1.0000
  Bi  Bi 0.06892 0.94599 0.36895 1.0000
  Bi  Bi 0.06892 0.94599 0.36895 1.0000
  Bi  Bi 0.05692 0.92817 0.63104 1.0000
  Bi  Bi 0.05692 0.92817 0.63104 1.0000
  Bi  Bi 0.05111 0.92527 0.00000 1.0000
  Bi  Bi 0.05111 0.92527 0.00000 1.0000
  Bi  Bi 0.05111 0.92527 0.00000 1.0000
  Bi  Bi 0.05111 0.92527 0.00000 1.0000
  Bi  Bi 0.09255 0.94599 0.36895 1.0000
  Bi  Bi 0.09255 0.94599 0.36895 1.0000
  Bi  Bi 0.08054 0.92817 0.63104 1.0000
  Bi  Bi 0.08054 0.92817 0.63104 1.0000
  Bi  Bi 0.07473 0.92527 0.00000 1.0000
  Bi  Bi 0.07473 0.92527 0.00000 1.0000
  Bi  Bi 0.07473 0.92527 0.00000 1.0000
  Bi  Bi 0.07473 0.92527 0.00000 1.0000
  Bi  Bi 0.11617 0.94599 0.36895 1.0000
  Bi  Bi 0.11617 0.94599 0.36895 1.0000
  Bi  Bi 0.10417 0.92817 0.63104 1.0000
  Bi  Bi 0.10417 0.92817 0.63104 1.0000
  Bi  Bi 0.09836 0.92527 0.00000 1.0000
  Bi  Bi 0.09836 0.92527 0.00000 1.0000
  Bi  Bi 0.09836 0.92527 0.00000 1.0000
  Bi  Bi 0.09836 0.92527 0.00000 1.0000
  Bi  Bi 0.13980 0.94599 0.36895 1.0000
  Bi  Bi 0.13980 0.94599 0.36895 1.0000
  Bi  Bi 0.12780 0.92817 0.63104 1.0000
  Bi  Bi 0.12780 0.92817 0.63104 1.0000
  Bi  Bi 0.12198 0.92527 0.00000 1.0000
  Bi  Bi 0.12198 0.92527 0.00000 1.0000
  Bi  Bi 0.12198 0.92527 0.00000 1.0000
  Bi  Bi 0.12198 0.92527 0.00000 1.0000
  Bi  Bi 0.16343 0.94599 0.36895 1.0000
  Bi  Bi 0.16343 0.94599 0.36895 1.0000
  Bi  Bi 0.15142 0.92817 0.63104 1.0000
  Bi  Bi 0.15142 0.92817 0.63104 1.0000
  Bi  Bi 0.14561 0.92527 0.00000 1.0000
  Bi  Bi 0.14561 0.92527 0.00000 1.0000
  Bi  Bi 0.14561 0.92527 0.00000 1.0000
  Bi  Bi 0.14561 0.92527 0.00000 1.0000
  Bi  Bi 0.18705 0.94599 0.36895 1.0000
  Bi  Bi 0.18705 0.94599 0.36895 1.0000
  Bi  Bi 0.17505 0.92817 0.63104 1.0000
  Bi  Bi 0.17505 0.92817 0.63104 1.0000
  Bi  Bi 0.16924 0.92527 0.00000 1.0000
  Bi  Bi 0.16924 0.92527 0.00000 1.0000
  Bi  Bi 0.16924 0.92527 0.00000 1.0000
  Bi  Bi 0.16924 0.92527 0.00000 1.0000
  Bi  Bi 0.21068 0.94599 0.36895 1.0000
  Bi  Bi 0.21068 0.94599 0.36895 1.0000
  Bi  Bi 0.19867 0.92817 0.63104 1.0000
  Bi  Bi 0.19867 0.92817 0.63104 1.0000
  Bi  Bi 0.19286 0.92527 0.00000 1.0000
  Bi  Bi 0.19286 0.92527 0.00000 1.0000
  Bi  Bi 0.19286 0.92527 0.00000 1.0000
  Bi  Bi 0.19286 0.92527 0.00000 1.0000
  Bi  Bi 0.23430 0.94599 0.36895 1.0000
  Bi  Bi 0.23430 0.94599 0.36895 1.0000
  Bi  Bi 0.22230 0.92817 0.63104 1.0000
  Bi  Bi 0.22230 0.92817 0.63104 1.0000
  Bi  Bi 0.21649 0.92527 0.00000 1.0000
  Bi  Bi 0.21649 0.92527 0.00000 1.0000
  Bi  Bi 0.21649 0.92527 0.00000 1.0000
  Bi  Bi 0.21649 0.92527 0.00000 1.0000
  Bi  Bi 0.25793 0.94599 0.36895 1.0000
  Bi  Bi 0.25793 0.94599 0.36895 1.0000
  Bi  Bi 0.24593 0.92817 0.63104 1.0000
  Bi  Bi 0.24593 0.92817 0.63104 1.0000
  Bi  Bi 0.24011 0.92527 0.00000 1.0000
  Bi  Bi 0.24011 0.92527 0.00000 1.0000
  Bi  Bi 0.24011 0.92527 0.00000 1.0000
  Bi  Bi 0.24011 0.92527 0.00000 1.0000
  Bi  Bi 0.28156 0.94599 0.36895 1.0000
  Bi  Bi 0.28156 0.94599 0.36895 1.0000
  Bi  Bi 0.26955 0.92817 0.63104 1.0000
  Bi  Bi 0.26955 0.92817 0.63104 1.0000
  Bi  Bi 0.26374 0.92527 0.00000 1.0000
  Bi  Bi 0.26374 0.92527 0.00000 1.0000
  Bi  Bi 0.26374 0.92527 0.00000 1.0000
  Bi  Bi 0.26374 0.92527 0.00000 1.0000
  Bi  Bi 0.30518 0.94599 0.36895 1.0000
  Bi  Bi 0.30518 0.94599 0.36895 1.0000
  Bi  Bi 0.29318 0.92817 0.63104 1.0000
  Bi  Bi 0.29318 0.92817 0.63104 1.0000
  Bi  Bi 0.28737 0.92527 0.00000 1.0000
  Bi  Bi 0.28737 0.92527 0.00000 1.0000
  Bi  Bi 0.28737 0.92527 0.00000 1.0000
  Bi  Bi 0.28737 0.92527 0.00000 1.0000
  Bi  Bi 0.32881 0.94599 0.36895 1.0000
  Bi  Bi 0.32881 0.94599 0.36895 1.0000
  Bi  Bi 0.31680 0.92817 0.63104 1.0000
  Bi  Bi 0.31680 0.92817 0.63104 1.0000
  Bi  Bi 0.31099 0.92527 0.00000 1.0000
  Bi  Bi 0.31099 0.92527 0.00000 1.0000
  Bi  Bi 0.31099 0.92527 0.00000 1.0000
  Bi  Bi 0.31099 0.92527 0.00000 1.0000
  Bi  Bi 0.35243 0.94599 0.36895 1.0000
  Bi  Bi 0.35243 0.94599 0.36895 1.0000
  Bi  Bi 0.34043 0.92817 0.63104 1.0000
  Bi  Bi 0.34043 0.92817 0.63104 1.0000
  Bi  Bi 0.33462 0.92527 0.00000 1.0000
  Bi  Bi 0.33462 0.92527 0.00000 1.0000
  Bi  Bi 0.33462 0.92527 0.00000 1.0000
  Bi  Bi 0.33462 0.92527 0.00000 1.0000
  Bi  Bi 0.37606 0.94599 0.36895 1.0000
  Bi  Bi 0.37606 0.94599 0.36895 1.0000
  Bi  Bi 0.36406 0.92817 0.63104 1.0000
  Bi  Bi 0.36406 0.92817 0.63104 1.0000
  Bi  Bi 0.35824 0.92527 0.00000 1.0000
  Bi  Bi 0.35824 0.92527 0.00000 1.0000
  Bi  Bi 0.35824 0.92527 0.00000 1.0000
  Bi  Bi 0.35824 0.92527 0.00000 1.0000
  Bi  Bi 0.39968 0.94599 0.36895 1.0000
  Bi  Bi 0.39968 0.94599 0.36895 1.0000
  Bi  Bi 0.38768 0.92817 0.63104 1.0000
  Bi  Bi 0.38768 0.92817 0.63104 1.0000
  Bi  Bi 0.38187 0.92527 0.00000 1.0000
  Bi  Bi 0.38187 0.92527 0.00000 1.0000
  Bi  Bi 0.38187 0.92527 0.00000 1.0000
  Bi  Bi 0.38187 0.92527 0.00000 1.0000
  Bi  Bi 0.42331 0.94599 0.36895 1.0000
  Bi  Bi 0.42331 0.94599 0.36895 1.0000
  Bi  Bi 0.41131 0.92817 0.63104 1.0000
  Bi  Bi 0.41131 0.92817 0.63104 1.0000
  Bi  Bi 0.40550 0.92527 0.00000 1.0000
  Bi  Bi 0.40550 0.92527 0.00000 1.0000
  Bi  Bi 0.40550 0.92527 0.00000 1.0000
  Bi  Bi 0.40550 0.92527 0.00000 1.0000
  Bi  Bi 0.44694 0.94599 0.36895 1.0000
  Bi  Bi 0.44694 0.94599 0.36895 1.0000
  Bi  Bi 0.43493 0.92817 0.63104 1.0000
  Bi  Bi 0.43493 0.92817 0.63104 1.0000
  Bi  Bi 0.42912 0.92527 0.00000 1.0000
  Bi  Bi 0.42912 0.92527 0.00000 1.0000
  Bi  Bi 0.42912 0.92527 0.00000 1.0000
  Bi  Bi 0.42912 0.92527 0.00000 1.0000
  Bi  Bi 0.47056 0.94599 0.36895 1.0000
  Bi  Bi 0.47056 0.94599 0.36895 1.0000
  Bi  Bi 0.45856 0.92817 0.63104 1.0000
  Bi  Bi 0.45856 0.92817 0.63104 1.0000
  Bi  Bi 0.45275 0.92527 0.00000 1.0000
  Bi  Bi 0.45275 0.92527 0.00000 1.0000
  Bi  Bi 0.45275 0.92527 0.00000 1.0000
  Bi  Bi 0.45275 0.92527 0.00000 1.0000
  Bi  Bi 0.49419 0.94599 0.36895 1.0000
  Bi  Bi 0.49419 0.94599 0.36895 1.0000
  Bi  Bi 0.48219 0.92817 0.63104 1.0000
  Bi  Bi 0.48219 0.92817 0.63104 1.0000
  Bi  Bi 0.47637 0.92527 0.00000 1.0000
  Bi  Bi 0.47637 0.92527 0.00000 1.0000
  Bi  Bi 0.47637 0.92527 0.00000 1.0000
  Bi  Bi 0.47637 0.92527 0.00000 1.0000
  Bi  Bi 0.51781 0.94599 0.36895 1.0000
  Bi  Bi 0.51781 0.94599 0.36895 1.0000
  Bi  Bi 0.50581 0.92817 0.63104 1.0000
  Bi  Bi 0.50581 0.92817 0.63104 1.0000
  Bi  Bi 0.50000 0.92527 0.00000 1.0000
  Bi  Bi 0.50000 0.92527 0.00000 1.0000
  Bi  Bi 0.50000 0.92527 0.00000 1.0000
  Bi  Bi 0.50000 0.92527 0.00000 1.0000
  Bi  Bi 0.54144 0.94599 0.36895 1.0000
  Bi  Bi 0.54144 0.94599 0.36895 1.0000
  Bi  Bi 0.52944 0.92817 0.63104 1.0000
  Bi  Bi 0.52944 0.92817 0.63104 1.0000
  Bi  Bi 0.52363 0.92527 0.00000 1.0000
  Bi  Bi 0.52363 0.92527 0.00000 1.0000
  Bi  Bi 0.52363 0.92527 0.00000 1.0000
  Bi  Bi 0.52363 0.92527 0.00000 1.0000
  Bi  Bi 0.56507 0.94599 0.36895 1.0000
  Bi  Bi 0.56507 0.94599 0.36895 1.0000
  Bi  Bi 0.55306 0.92817 0.63104 1.0000
  Bi  Bi 0.55306 0.92817 0.63104 1.0000
  Bi  Bi 0.54725 0.92527 0.00000 1.0000
  Bi  Bi 0.54725 0.92527 0.00000 1.0000
  Bi  Bi 0.54725 0.92527 0.00000 1.0000
  Bi  Bi 0.54725 0.92527 0.00000 1.0000
  Bi  Bi 0.58869 0.94599 0.36895 1.0000
  Bi  Bi 0.58869 0.94599 0.36895 1.0000
  Bi  Bi 0.57669 0.92817 0.63104 1.0000
  Bi  Bi 0.57669 0.92817 0.63104 1.0000
  Bi  Bi 0.57088 0.92527 0.00000 1.0000
  Bi  Bi 0.57088 0.92527 0.00000 1.0000
  Bi  Bi 0.57088 0.92527 0.00000 1.0000
  Bi  Bi 0.57088 0.92527 0.00000 1.0000
  Bi  Bi 0.61232 0.94599 0.36895 1.0000
  Bi  Bi 0.61232 0.94599 0.36895 1.0000
  Bi  Bi 0.60032 0.92817 0.63104 1.0000
  Bi  Bi 0.60032 0.92817 0.63104 1.0000
  Bi  Bi 0.59450 0.92527 0.00000 1.0000
  Bi  Bi 0.59450 0.92527 0.00000 1.0000
  Bi  Bi 0.59450 0.92527 0.00000 1.0000
  Bi  Bi 0.59450 0.92527 0.00000 1.0000
  Bi  Bi 0.63594 0.94599 0.36895 1.0000
  Bi  Bi 0.63594 0.94599 0.36895 1.0000
  Bi  Bi 0.62394 0.92817 0.63104 1.0000
  Bi  Bi 0.62394 0.92817 0.63104 1.0000
  Bi  Bi 0.61813 0.92527 0.00000 1.0000
  Bi  Bi 0.61813 0.92527 0.00000 1.0000
  Bi  Bi 0.61813 0.92527 0.00000 1.0000
  Bi  Bi 0.61813 0.92527 0.00000 1.0000
  Bi  Bi 0.65957 0.94599 0.36895 1.0000
  Bi  Bi 0.65957 0.94599 0.36895 1.0000
  Bi  Bi 0.64757 0.92817 0.63104 1.0000
  Bi  Bi 0.64757 0.92817 0.63104 1.0000
  Bi  Bi 0.64176 0.92527 0.00000 1.0000
  Bi  Bi 0.64176 0.92527 0.00000 1.0000
  Bi  Bi 0.64176 0.92527 0.00000 1.0000
  Bi  Bi 0.64176 0.92527 0.00000 1.0000
  Bi  Bi 0.68320 0.94599 0.36895 1.0000
  Bi  Bi 0.68320 0.94599 0.36895 1.0000
  Bi  Bi 0.67119 0.92817 0.63104 1.0000
  Bi  Bi 0.67119 0.92817 0.63104 1.0000
  Bi  Bi 0.66538 0.92527 0.00000 1.0000
  Bi  Bi 0.66538 0.92527 0.00000 1.0000
  Bi  Bi 0.66538 0.92527 0.00000 1.0000
  Bi  Bi 0.66538 0.92527 0.00000 1.0000
  Bi  Bi 0.70682 0.94599 0.36895 1.0000
  Bi  Bi 0.70682 0.94599 0.36895 1.0000
  Bi  Bi 0.69482 0.92817 0.63104 1.0000
  Bi  Bi 0.69482 0.92817 0.63104 1.0000
  Bi  Bi 0.68901 0.92527 0.00000 1.0000
  Bi  Bi 0.68901 0.92527 0.00000 1.0000
  Bi  Bi 0.68901 0.92527 0.00000 1.0000
  Bi  Bi 0.68901 0.92527 0.00000 1.0000
  Bi  Bi 0.73045 0.94599 0.36895 1.0000
  Bi  Bi 0.73045 0.94599 0.36895 1.0000
  Bi  Bi 0.71844 0.92817 0.63104 1.0000
  Bi  Bi 0.71844 0.92817 0.63104 1.0000
  Bi  Bi 0.71263 0.92527 0.00000 1.0000
  Bi  Bi 0.71263 0.92527 0.00000 1.0000
  Bi  Bi 0.71263 0.92527 0.00000 1.0000
  Bi  Bi 0.71263 0.92527 0.00000 1.0000
  Bi  Bi 0.75407 0.94599 0.36895 1.0000
  Bi  Bi 0.75407 0.94599 0.36895 1.0000
  Bi  Bi 0.74207 0.92817 0.63104 1.0000
  Bi  Bi 0.74207 0.92817 0.63104 1.0000
  Bi  Bi 0.73626 0.92527 0.00000 1.0000
  Bi  Bi 0.73626 0.92527 0.00000 1.0000
  Bi  Bi 0.73626 0.92527 0.00000 1.0000
  Bi  Bi 0.73626 0.92527 0.00000 1.0000
  Bi  Bi 0.77770 0.94599 0.36895 1.0000
  Bi  Bi 0.77770 0.94599 0.36895 1.0000
  Bi  Bi 0.76570 0.92817 0.63104 1.0000
  Bi  Bi 0.76570 0.92817 0.63104 1.0000
  Bi  Bi 0.75989 0.92527 0.00000 1.0000
  Bi  Bi 0.75989 0.92527 0.00000 1.0000
  Mo  Mo 0.75989 0.92527 0.00000 1.0000
  Bi  Bi 0.75989 0.92527 0.00000 1.0000
  Bi  Bi 0.80133 0.94599 0.36895 1.0000
  Bi  Bi 0.80133 0.94599 0.36895 1.0000
  Bi  Bi 0.78932 0.92817 0.63104 1.0000
  Bi  Bi 0.78932 0.92817 0.63104 1.0000
  Mo  Mo 0.78351 0.92527 0.00000 1.0000
  Bi  Bi 0.78351 0.92527 0.00000 1.0000
  Mo  Mo 0.78351 0.92527 0.00000 1.0000
  Mo  Mo 0.78351 0.92527 0.00000 1.0000
  Bi  Bi 0.82495 0.94599 0.36895 1.0000
  Bi  Bi 0.82495 0.94599 0.36895 1.0000
  Bi  Bi 0.81295 0.92817 0.63104 1.0000
  Bi  Bi 0.81295 0.92817 0.63104 1.0000
  Mo  Mo 0.80714 0.92527 0.00000 1.0000
  Mo  Mo 0.80714 0.92527 0.00000 1.0000
  Si  Si 0.80714 0.92527 0.00000 1.0000
  Mo  Mo 0.80714 0.92527 0.00000 1.0000
  Mo  Mo 0.84858 0.94599 0.36895 1.0000
  Bi  Bi 0.84858 0.94599 0.36895 1.0000
  Mo  Mo 0.83657 0.92817 0.63104 1.0000
  Bi  Bi 0.83657 0.92817 0.63104 1.0000
  Mo  Mo 0.83076 0.92527 0.00000 1.0000
  Mo  Mo 0.83076 0.92527 0.00000 1.0000
  Si  Si 0.83076 0.92527 0.00000 1.0000
  Mo  Mo 0.83076 0.92527 0.00000 1.0000
  Mo  Mo 0.87220 0.94599 0.36895 1.0000
  Bi  Bi 0.87220 0.94599 0.36895 1.0000
  Mo  Mo 0.86020 0.92817 0.63104 1.0000
  Bi  Bi 0.86020 0.92817 0.63104 1.0000
  Mo  Mo 0.85439 0.92527 0.00000 1.0000
  Mo  Mo 0.85439 0.92527 0.00000 1.0000
  Rb  Rb 0.85439 0.92527 0.00000 1.0000
  Si  Si 0.85439 0.92527 0.00000 1.0000
  Mo  Mo 0.89583 0.94599 0.36895 1.0000
  Bi  Bi 0.89583 0.94599 0.36895 1.0000
  Mo  Mo 0.88383 0.92817 0.63104 1.0000
  Bi  Bi 0.88383 0.92817 0.63104 1.0000
  Si  Si 0.87802 0.92527 0.00000 1.0000
  Mo  Mo 0.87802 0.92527 0.00000 1.0000
  Rb  Rb 0.87802 0.92527 0.00000 1.0000
  Si  Si 0.87802 0.92527 0.00000 1.0000
  Mo  Mo 0.91946 0.94599 0.36895 1.0000
  Bi  Bi 0.91946 0.94599 0.36895 1.0000
  Mo  Mo 0.90745 0.92817 0.63104 1.0000
  Bi  Bi 0.90745 0.92817 0.63104 1.0000
  Si  Si 0.90164 0.92527 0.00000 1.0000
  Mo  Mo 0.90164 0.92527 0.00000 1.0000
  Rb  Rb 0.90164 0.92527 0.00000 1.0000
  Si  Si 0.90164 0.92527 0.00000 1.0000
  Bi  Bi 0.94308 0.94599 0.36895 1.0000
  Bi  Bi 0.94308 0.94599 0.36895 1.0000
  Bi  Bi 0.93108 0.92817 0.63104 1.0000
  Bi  Bi 0.93108 0.92817 0.63104 1.0000
  Mo  Mo 0.92527 0.92527 0.00000 1.0000
  Mo  Mo 0.92527 0.92527 0.00000 1.0000
  Rb  Rb 0.92527 0.92527 0.00000 1.0000
  Si  Si 0.92527 0.92527 0.00000 1.0000
  Bi  Bi 0.96671 0.94599 0.36895 1.0000
  Bi  Bi 0.96671 0.94599 0.36895 1.0000
  Bi  Bi 0.95470 0.92817 0.63104 1.0000
  Bi  Bi 0.95470 0.92817 0.63104 1.0000
  Bi  Bi 0.94889 0.92527 0.00000 1.0000
  Bi  Bi 0.94889 0.92527 0.00000 1.0000
  Mo  Mo 0.94889 0.92527 0.00000 1.0000
  Bi  Bi 0.94889 0.92527 0.00000 1.0000
  Bi  Bi 0.04530 0.96961 0.36895 1.0000
  Bi  Bi 0.04530 0.96961 0.36895 1.0000
  Bi  Bi 0.03329 0.95180 0.63104 1.0000
  Bi  Bi 0.03329 0.95180 0.63104 1.0000
  Bi  Bi 0.02748 0.94889 0.00000 1.0000
  Bi  Bi 0.02748 0.94889 0.00000 1.0000
  Bi  Bi 0.02748 0.94889 0.00000 1.0000
  Bi  Bi 0.02748 0.94889 0.00000 1.0000
  Bi  Bi 0.06892 0.96961 0.36895 1.0000
  Bi  Bi 0.06892 0.96961 0.36895 1.0000
  Bi  Bi 0.05692 0.95180 0.63104 1.0000
  Bi  Bi 0.05692 0.95180 0.63104 1.0000
  Bi  Bi 0.05111 0.94889 0.00000 1.0000
  Bi  Bi 0.05111 0.94889 0.00000 1.0000
  Bi  Bi 0.05111 0.94889 0.00000 1.0000
  Bi  Bi 0.05111 0.94889 0.00000 1.0000
  Bi  Bi 0.09255 0.96961 0.36895 1.0000
  Bi  Bi 0.09255 0.96961 0.36895 1.0000
  Bi  Bi 0.08054 0.95180 0.63104 1.0000
  Bi  Bi 0.08054 0.95180 0.63104 1.0000
  Bi  Bi 0.07473 0.94889 0.00000 1.0000
  Bi  Bi 0.07473 0.94889 0.00000 1.0000
  Bi  Bi 0.07473 0.94889 0.00000 1.0000
  Bi  Bi 0.07473 0.94889 0.00000 1.0000
  Bi  Bi 0.11617 0.96961 0.36895 1.0000
  Bi  Bi 0.11617 0.96961 0.36895 1.0000
  Bi  Bi 0.10417 0.95180 0.63104 1.0000
  Bi  Bi 0.10417 0.95180 0.63104 1.0000
  Bi  Bi 0.09836 0.94889 0.00000 1.0000
  Bi  Bi 0.09836 0.94889 0.00000 1.0000
  Bi  Bi 0.09836 0.94889 0.00000 1.0000
  Bi  Bi 0.09836 0.94889 0.00000 1.0000
  Bi  Bi 0.13980 0.96961 0.36895 1.0000
  Bi  Bi 0.13980 0.96961 0.36895 1.0000
  Bi  Bi 0.12780 0.95180 0.63104 1.0000
  Bi  Bi 0.12780 0.95180 0.63104 1.0000
  Bi  Bi 0.12198 0.94889 0.00000 1.0000
  Bi  Bi 0.12198 0.94889 0.00000 1.0000
  Bi  Bi 0.12198 0.94889 0.00000 1.0000
  Bi  Bi 0.12198 0.94889 0.00000 1.0000
  Bi  Bi 0.16343 0.96961 0.36895 1.0000
  Bi  Bi 0.16343 0.96961 0.36895 1.0000
  Bi  Bi 0.15142 0.95180 0.63104 1.0000
  Bi  Bi 0.15142 0.95180 0.63104 1.0000
  Bi  Bi 0.14561 0.94889 0.00000 1.0000
  Bi  Bi 0.14561 0.94889 0.00000 1.0000
  Bi  Bi 0.14561 0.94889 0.00000 1.0000
  Bi  Bi 0.14561 0.94889 0.00000 1.0000
  Bi  Bi 0.18705 0.96961 0.36895 1.0000
  Bi  Bi 0.18705 0.96961 0.36895 1.0000
  Bi  Bi 0.17505 0.95180 0.63104 1.0000
  Bi  Bi 0.17505 0.95180 0.63104 1.0000
  Bi  Bi 0.16924 0.94889 0.00000 1.0000
  Bi  Bi 0.16924 0.94889 0.00000 1.0000
  Bi  Bi 0.16924 0.94889 0.00000 1.0000
  Bi  Bi 0.16924 0.94889 0.00000 1.0000
  Bi  Bi 0.21068 0.96961 0.36895 1.0000
  Bi  Bi 0.21068 0.96961 0.36895 1.0000
  Bi  Bi 0.19867 0.95180 0.63104 1.0000
  Bi  Bi 0.19867 0.95180 0.63104 1.0000
  Bi  Bi 0.19286 0.94889 0.00000 1.0000
  Bi  Bi 0.19286 0.94889 0.00000 1.0000
  Bi  Bi 0.19286 0.94889 0.00000 1.0000
  Bi  Bi 0.19286 0.94889 0.00000 1.0000
  Bi  Bi 0.23430 0.96961 0.36895 1.0000
  Bi  Bi 0.23430 0.96961 0.36895 1.0000
  Bi  Bi 0.22230 0.95180 0.63104 1.0000
  Bi  Bi 0.22230 0.95180 0.63104 1.0000
  Bi  Bi 0.21649 0.94889 0.00000 1.0000
  Bi  Bi 0.21649 0.94889 0.00000 1.0000
  Bi  Bi 0.21649 0.94889 0.00000 1.0000
  Bi  Bi 0.21649 0.94889 0.00000 1.0000
  Bi  Bi 0.25793 0.96961 0.36895 1.0000
  Bi  Bi 0.25793 0.96961 0.36895 1.0000
  Bi  Bi 0.24593 0.95180 0.63104 1.0000
  Bi  Bi 0.24593 0.95180 0.63104 1.0000
  Bi  Bi 0.24011 0.94889 0.00000 1.0000
  Bi  Bi 0.24011 0.94889 0.00000 1.0000
  Bi  Bi 0.24011 0.94889 0.00000 1.0000
  Bi  Bi 0.24011 0.94889 0.00000 1.0000
  Bi  Bi 0.28156 0.96961 0.36895 1.0000
  Bi  Bi 0.28156 0.96961 0.36895 1.0000
  Bi  Bi 0.26955 0.95180 0.63104 1.0000
  Bi  Bi 0.26955 0.95180 0.63104 1.0000
  Bi  Bi 0.26374 0.94889 0.00000 1.0000
  Bi  Bi 0.26374 0.94889 0.00000 1.0000
  Bi  Bi 0.26374 0.94889 0.00000 1.0000
  Bi  Bi 0.26374 0.94889 0.00000 1.0000
  Bi  Bi 0.30518 0.96961 0.36895 1.0000
  Bi  Bi 0.30518 0.96961 0.36895 1.0000
  Bi  Bi 0.29318 0.95180 0.63104 1.0000
  Bi  Bi 0.29318 0.95180 0.63104 1.0000
  Bi  Bi 0.28737 0.94889 0.00000 1.0000
  Bi  Bi 0.28737 0.94889 0.00000 1.0000
  Bi  Bi 0.28737 0.94889 0.00000 1.0000
  Bi  Bi 0.28737 0.94889 0.00000 1.0000
  Bi  Bi 0.32881 0.96961 0.36895 1.0000
  Bi  Bi 0.32881 0.96961 0.36895 1.0000
  Bi  Bi 0.31680 0.95180 0.63104 1.0000
  Bi  Bi 0.31680 0.95180 0.63104 1.0000
  Bi  Bi 0.31099 0.94889 0.00000 1.0000
  Bi  Bi 0.31099 0.94889 0.00000 1.0000
  Bi  Bi 0.31099 0.94889 0.00000 1.0000
  Bi  Bi 0.31099 0.94889 0.00000 1.0000
  Bi  Bi 0.35243 0.96961 0.36895 1.0000
  Bi  Bi 0.35243 0.96961 0.36895 1.0000
  Bi  Bi 0.34043 0.95180 0.63104 1.0000
  Bi  Bi 0.34043 0.95180 0.63104 1.0000
  Bi  Bi 0.33462 0.94889 0.00000 1.0000
  Bi  Bi 0.33462 0.94889 0.00000 1.0000
  Bi  Bi 0.33462 0.94889 0.00000 1.0000
  Bi  Bi 0.33462 0.94889 0.00000 1.0000
  Bi  Bi 0.37606 0.96961 0.36895 1.0000
  Bi  Bi 0.37606 0.96961 0.36895 1.0000
  Bi  Bi 0.36406 0.95180 0.63104 1.0000
  Bi  Bi 0.36406 0.95180 0.63104 1.0000
  Bi  Bi 0.35824 0.94889 0.00000 1.0000
  Bi  Bi 0.35824 0.94889 0.00000 1.0000
  Bi  Bi 0.35824 0.94889 0.00000 1.0000
  Bi  Bi 0.35824 0.94889 0.00000 1.0000
  Bi  Bi 0.39968 0.96961 0.36895 1.0000
  Bi  Bi 0.39968 0.96961 0.36895 1.0000
  Bi  Bi 0.38768 0.95180 0.63104 1.0000
  Bi  Bi 0.38768 0.95180 0.63104 1.0000
  Bi  Bi 0.38187 0.94889 0.00000 1.0000
  Bi  Bi 0.38187 0.94889 0.00000 1.0000
  Bi  Bi 0.38187 0.94889 0.00000 1.0000
  Bi  Bi 0.38187 0.94889 0.00000 1.0000
  Bi  Bi 0.42331 0.96961 0.36895 1.0000
  Bi  Bi 0.42331 0.96961 0.36895 1.0000
  Bi  Bi 0.41131 0.95180 0.63104 1.0000
  Bi  Bi 0.41131 0.95180 0.63104 1.0000
  Bi  Bi 0.40550 0.94889 0.00000 1.0000
  Bi  Bi 0.40550 0.94889 0.00000 1.0000
  Bi  Bi 0.40550 0.94889 0.00000 1.0000
  Bi  Bi 0.40550 0.94889 0.00000 1.0000
  Bi  Bi 0.44694 0.96961 0.36895 1.0000
  Bi  Bi 0.44694 0.96961 0.36895 1.0000
  Bi  Bi 0.43493 0.95180 0.63104 1.0000
  Bi  Bi 0.43493 0.95180 0.63104 1.0000
  Bi  Bi 0.42912 0.94889 0.00000 1.0000
  Bi  Bi 0.42912 0.94889 0.00000 1.0000
  Bi  Bi 0.42912 0.94889 0.00000 1.0000
  Bi  Bi 0.42912 0.94889 0.00000 1.0000
  Bi  Bi 0.47056 0.96961 0.36895 1.0000
  Bi  Bi 0.47056 0.96961 0.36895 1.0000
  Bi  Bi 0.45856 0.95180 0.63104 1.0000
  Bi  Bi 0.45856 0.95180 0.63104 1.0000
  Bi  Bi 0.45275 0.94889 0.00000 1.0000
  Bi  Bi 0.45275 0.94889 0.00000 1.0000
  Bi  Bi 0.45275 0.94889 0.00000 1.0000
  Bi  Bi 0.45275 0.94889 0.00000 1.0000
  Bi  Bi 0.49419 0.96961 0.36895 1.0000
  Bi  Bi 0.49419 0.96961 0.36895 1.0000
  Bi  Bi 0.48219 0.95180 0.63104 1.0000
  Bi  Bi 0.48219 0.95180 0.63104 1.0000
  Bi  Bi 0.47637 0.94889 0.00000 1.0000
  Bi  Bi 0.47637 0.94889 0.00000 1.0000
  Bi  Bi 0.47637 0.94889 0.00000 1.0000
  Bi  Bi 0.47637 0.94889 0.00000 1.0000
  Bi  Bi 0.51781 0.96961 0.36895 1.0000
  Bi  Bi 0.51781 0.96961 0.36895 1.0000
  Bi  Bi 0.50581 0.95180 0.63104 1.0000
  Bi  Bi 0.50581 0.95180 0.63104 1.0000
  Bi  Bi 0.50000 0.94889 0.00000 1.0000
  Bi  Bi 0.50000 0.94889 0.00000 1.0000
  Bi  Bi 0.50000 0.94889 0.00000 1.0000
  Bi  Bi 0.50000 0.94889 0.00000 1.0000
  Bi  Bi 0.54144 0.96961 0.36895 1.0000
  Bi  Bi 0.54144 0.96961 0.36895 1.0000
  Bi  Bi 0.52944 0.95180 0.63104 1.0000
  Bi  Bi 0.52944 0.95180 0.63104 1.0000
  Bi  Bi 0.52363 0.94889 0.00000 1.0000
  Bi  Bi 0.52363 0.94889 0.00000 1.0000
  Bi  Bi 0.52363 0.94889 0.00000 1.0000
  Bi  Bi 0.52363 0.94889 0.00000 1.0000
  Bi  Bi 0.56507 0.96961 0.36895 1.0000
  Bi  Bi 0.56507 0.96961 0.36895 1.0000
  Bi  Bi 0.55306 0.95180 0.63104 1.0000
  Bi  Bi 0.55306 0.95180 0.63104 1.0000
  Bi  Bi 0.54725 0.94889 0.00000 1.0000
  Bi  Bi 0.54725 0.94889 0.00000 1.0000
  Bi  Bi 0.54725 0.94889 0.00000 1.0000
  Bi  Bi 0.54725 0.94889 0.00000 1.0000
  Bi  Bi 0.58869 0.96961 0.36895 1.0000
  Bi  Bi 0.58869 0.96961 0.36895 1.0000
  Bi  Bi 0.57669 0.95180 0.63104 1.0000
  Bi  Bi 0.57669 0.95180 0.63104 1.0000
  Bi  Bi 0.57088 0.94889 0.00000 1.0000
  Bi  Bi 0.57088 0.94889 0.00000 1.0000
  Bi  Bi 0.57088 0.94889 0.00000 1.0000
  Bi  Bi 0.57088 0.94889 0.00000 1.0000
  Bi  Bi 0.61232 0.96961 0.36895 1.0000
  Bi  Bi 0.61232 0.96961 0.36895 1.0000
  Bi  Bi 0.60032 0.95180 0.63104 1.0000
  Bi  Bi 0.60032 0.95180 0.63104 1.0000
  Bi  Bi 0.59450 0.94889 0.00000 1.0000
  Bi  Bi 0.59450 0.94889 0.00000 1.0000
  Bi  Bi 0.59450 0.94889 0.00000 1.0000
  Bi  Bi 0.59450 0.94889 0.00000 1.0000
  Bi  Bi 0.63594 0.96961 0.36895 1.0000
  Bi  Bi 0.63594 0.96961 0.36895 1.0000
  Bi  Bi 0.62394 0.95180 0.63104 1.0000
  Bi  Bi 0.62394 0.95180 0.63104 1.0000
  Bi  Bi 0.61813 0.94889 0.00000 1.0000
  Bi  Bi 0.61813 0.94889 0.00000 1.0000
  Bi  Bi 0.61813 0.94889 0.00000 1.0000
  Bi  Bi 0.61813 0.94889 0.00000 1.0000
  Bi  Bi 0.65957 0.96961 0.36895 1.0000
  Bi  Bi 0.65957 0.96961 0.36895 1.0000
  Bi  Bi 0.64757 0.95180 0.63104 1.0000
  Bi  Bi 0.64757 0.95180 0.63104 1.0000
  Bi  Bi 0.64176 0.94889 0.00000 1.0000
  Bi  Bi 0.64176 0.94889 0.00000 1.0000
  Bi  Bi 0.64176 0.94889 0.00000 1.0000
  Bi  Bi 0.64176 0.94889 0.00000 1.0000
  Bi  Bi 0.68320 0.96961 0.36895 1.0000
  Bi  Bi 0.68320 0.96961 0.36895 1.0000
  Bi  Bi 0.67119 0.95180 0.63104 1.0000
  Bi  Bi 0.67119 0.95180 0.63104 1.0000
  Bi  Bi 0.66538 0.94889 0.00000 1.0000
  Bi  Bi 0.66538 0.94889 0.00000 1.0000
  Bi  Bi 0.66538 0.94889 0.00000 1.0000
  Bi  Bi 0.66538 0.94889 0.00000 1.0000
  Bi  Bi 0.70682 0.96961 0.36895 1.0000
  Bi  Bi 0.70682 0.96961 0.36895 1.0000
  Bi  Bi 0.69482 0.95180 0.63104 1.0000
  Bi  Bi 0.69482 0.95180 0.63104 1.0000
  Bi  Bi 0.68901 0.94889 0.00000 1.0000
  Bi  Bi 0.68901 0.94889 0.00000 1.0000
  Bi  Bi 0.68901 0.94889 0.00000 1.0000
  Bi  Bi 0.68901 0.94889 0.00000 1.0000
  Bi  Bi 0.73045 0.96961 0.36895 1.0000
  Bi  Bi 0.73045 0.96961 0.36895 1.0000
  Bi  Bi 0.71844 0.95180 0.63104 1.0000
  Bi  Bi 0.71844 0.95180 0.63104 1.0000
  Bi  Bi 0.71263 0.94889 0.00000 1.0000
  Bi  Bi 0.71263 0.94889 0.00000 1.0000
  Bi  Bi 0.71263 0.94889 0.00000 1.0000
  Bi  Bi 0.71263 0.94889 0.00000 1.0000
  Bi  Bi 0.75407 0.96961 0.36895 1.0000
  Bi  Bi 0.75407 0.96961 0.36895 1.0000
  Bi  Bi 0.74207 0.95180 0.63104 1.0000
  Bi  Bi 0.74207 0.95180 0.63104 1.0000
  Bi  Bi 0.73626 0.94889 0.00000 1.0000
  Bi  Bi 0.73626 0.94889 0.00000 1.0000
  Bi  Bi 0.73626 0.94889 0.00000 1.0000
  Bi  Bi 0.73626 0.94889 0.00000 1.0000
  Bi  Bi 0.77770 0.96961 0.36895 1.0000
  Bi  Bi 0.77770 0.96961 0.36895 1.0000
  Bi  Bi 0.76570 0.95180 0.63104 1.0000
  Bi  Bi 0.76570 0.95180 0.63104 1.0000
  Bi  Bi 0.75989 0.94889 0.00000 1.0000
  Bi  Bi 0.75989 0.94889 0.00000 1.0000
  Bi  Bi 0.75989 0.94889 0.00000 1.0000
  Bi  Bi 0.75989 0.94889 0.00000 1.0000
  Bi  Bi 0.80133 0.96961 0.36895 1.0000
  Bi  Bi 0.80133 0.96961 0.36895 1.0000
  Bi  Bi 0.78932 0.95180 0.63104 1.0000
  Bi  Bi 0.78932 0.95180 0.63104 1.0000
  Bi  Bi 0.78351 0.94889 0.00000 1.0000
  Bi  Bi 0.78351 0.94889 0.00000 1.0000
  Bi  Bi 0.78351 0.94889 0.00000 1.0000
  Bi  Bi 0.78351 0.94889 0.00000 1.0000
  Bi  Bi 0.82495 0.96961 0.36895 1.0000
  Bi  Bi 0.82495 0.96961 0.36895 1.0000
  Bi  Bi 0.81295 0.95180 0.63104 1.0000
  Bi  Bi 0.81295 0.95180 0.63104 1.0000
  Bi  Bi 0.80714 0.94889 0.00000 1.0000
  Bi  Bi 0.80714 0.94889 0.00000 1.0000
  Mo  Mo 0.80714 0.94889 0.00000 1.0000
  Bi  Bi 0.80714 0.94889 0.00000 1.0000
  Bi  Bi 0.84858 0.96961 0.36895 1.0000
  Bi  Bi 0.84858 0.96961 0.36895 1.0000
  Bi  Bi 0.83657 0.95180 0.63104 1.0000
  Bi  Bi 0.83657 0.95180 0.63104 1.0000
  Bi  Bi 0.83076 0.94889 0.00000 1.0000
  Bi  Bi 0.83076 0.94889 0.00000 1.0000
  Mo  Mo 0.83076 0.94889 0.00000 1.0000
  Bi  Bi 0.83076 0.94889 0.00000 1.0000
  Bi  Bi 0.87220 0.96961 0.36895 1.0000
  Bi  Bi 0.87220 0.96961 0.36895 1.0000
  Bi  Bi 0.86020 0.95180 0.63104 1.0000
  Bi  Bi 0.86020 0.95180 0.63104 1.0000
  Bi  Bi 0.85439 0.94889 0.00000 1.0000
  Bi  Bi 0.85439 0.94889 0.00000 1.0000
  Mo  Mo 0.85439 0.94889 0.00000 1.0000
  Mo  Mo 0.85439 0.94889 0.00000 1.0000
  Bi  Bi 0.89583 0.96961 0.36895 1.0000
  Bi  Bi 0.89583 0.96961 0.36895 1.0000
  Bi  Bi 0.88383 0.95180 0.63104 1.0000
  Bi  Bi 0.88383 0.95180 0.63104 1.0000
  Bi  Bi 0.87802 0.94889 0.00000 1.0000
  Bi  Bi 0.87802 0.94889 0.00000 1.0000
  Si  Si 0.87802 0.94889 0.00000 1.0000
  Mo  Mo 0.87802 0.94889 0.00000 1.0000
  Bi  Bi 0.91946 0.96961 0.36895 1.0000
  Bi  Bi 0.91946 0.96961 0.36895 1.0000
  Bi  Bi 0.90745 0.95180 0.63104 1.0000
  Bi  Bi 0.90745 0.95180 0.63104 1.0000
  Bi  Bi 0.90164 0.94889 0.00000 1.0000
  Bi  Bi 0.90164 0.94889 0.00000 1.0000
  Si  Si 0.90164 0.94889 0.00000 1.0000
  Mo  Mo 0.90164 0.94889 0.00000 1.0000
  Bi  Bi 0.94308 0.96961 0.36895 1.0000
  Bi  Bi 0.94308 0.96961 0.36895 1.0000
  Bi  Bi 0.93108 0.95180 0.63104 1.0000
  Bi  Bi 0.93108 0.95180 0.63104 1.0000
  Bi  Bi 0.92527 0.94889 0.00000 1.0000
  Bi  Bi 0.92527 0.94889 0.00000 1.0000
  Si  Si 0.92527 0.94889 0.00000 1.0000
  Mo  Mo 0.92527 0.94889 0.00000 1.0000
  Bi  Bi 0.96671 0.96961 0.36895 1.0000
  Bi  Bi 0.96671 0.96961 0.36895 1.0000
  Bi  Bi 0.95470 0.95180 0.63104 1.0000
  Bi  Bi 0.95470 0.95180 0.63104 1.0000
  Bi  Bi 0.94889 0.94889 0.00000 1.0000
  Bi  Bi 0.94889 0.94889 0.00000 1.0000
  Mo  Mo 0.94889 0.94889 0.00000 1.0000
  Bi  Bi 0.94889 0.94889 0.00000 1.0000

