# CIF Gen by MATLAB
#email: parkman@buaa.edu.cn
## Date: 01-Apr-2021

# PARCHG.GDY.cif

_cell_length_a           94.600000
_cell_length_b           94.600001
_cell_length_c           13.000000
_cell_angle_alpha        90.000000
_cell_angle_beta         90.000000
_cell_angle_gamma       120.000000

loop_
_space_group_symop.magn_id
_space_group_symop.magn_operation_xyz
1   x,y,z,+1

loop_
_atom_site_label
_atom_site_type_symbol
_atom_site_fract_x
_atom_site_fract_y
_atom_site_fract_z
_atom_site_occupancy
  Bi  Bi 0.06516 0.05000 0.00000 1.0000
  Bi  Bi 0.05000 0.06516 0.00000 1.0000
  Bi  Bi 0.03484 0.03484 0.00000 1.0000
  Bi  Bi 0.03484 0.05000 0.00000 1.0000
  Bi  Bi 0.05000 0.03484 0.00000 1.0000
  Bi  Bi 0.06516 0.06516 0.00000 1.0000
  Bi  Bi 0.07994 0.05000 0.00000 1.0000
  Bi  Bi 0.05000 0.07994 0.00000 1.0000
  Bi  Bi 0.02006 0.02006 0.00000 1.0000
  Bi  Bi 0.02006 0.05000 0.00000 1.0000
  Bi  Bi 0.05000 0.02006 0.00000 1.0000
  Bi  Bi 0.07994 0.07994 0.00000 1.0000
  Bi  Bi 0.09292 0.05000 0.00000 1.0000
  Bi  Bi 0.05000 0.09292 0.00000 1.0000
  Bi  Bi 0.00708 0.00708 0.00000 1.0000
  Bi  Bi 0.00708 0.05000 0.00000 1.0000
  Bi  Bi 0.05000 0.00708 0.00000 1.0000
  Bi  Bi 0.09292 0.09292 0.00000 1.0000
  Bi  Bi 0.06516 0.15000 0.00000 1.0000
  Bi  Bi 0.05000 0.16516 0.00000 1.0000
  Bi  Bi 0.03484 0.13484 0.00000 1.0000
  Bi  Bi 0.03484 0.15000 0.00000 1.0000
  Bi  Bi 0.05000 0.13484 0.00000 1.0000
  Bi  Bi 0.06516 0.16516 0.00000 1.0000
  Bi  Bi 0.07994 0.15000 0.00000 1.0000
  Bi  Bi 0.05000 0.17994 0.00000 1.0000
  Bi  Bi 0.02006 0.12006 0.00000 1.0000
  Bi  Bi 0.02006 0.15000 0.00000 1.0000
  Bi  Bi 0.05000 0.12006 0.00000 1.0000
  Bi  Bi 0.07994 0.17994 0.00000 1.0000
  Bi  Bi 0.09292 0.15000 0.00000 1.0000
  Bi  Bi 0.05000 0.19292 0.00000 1.0000
  Bi  Bi 0.00708 0.10708 0.00000 1.0000
  Bi  Bi 0.00708 0.15000 0.00000 1.0000
  Bi  Bi 0.05000 0.10708 0.00000 1.0000
  Bi  Bi 0.09292 0.19292 0.00000 1.0000
  Bi  Bi 0.06516 0.25000 0.00000 1.0000
  Bi  Bi 0.05000 0.26516 0.00000 1.0000
  Bi  Bi 0.03484 0.23484 0.00000 1.0000
  Bi  Bi 0.03484 0.25000 0.00000 1.0000
  Bi  Bi 0.05000 0.23484 0.00000 1.0000
  Bi  Bi 0.06516 0.26516 0.00000 1.0000
  Bi  Bi 0.07994 0.25000 0.00000 1.0000
  Bi  Bi 0.05000 0.27994 0.00000 1.0000
  Bi  Bi 0.02006 0.22006 0.00000 1.0000
  Bi  Bi 0.02006 0.25000 0.00000 1.0000
  Bi  Bi 0.05000 0.22006 0.00000 1.0000
  Bi  Bi 0.07994 0.27994 0.00000 1.0000
  Bi  Bi 0.09292 0.25000 0.00000 1.0000
  Bi  Bi 0.05000 0.29292 0.00000 1.0000
  Bi  Bi 0.00708 0.20708 0.00000 1.0000
  Bi  Bi 0.00708 0.25000 0.00000 1.0000
  Bi  Bi 0.05000 0.20708 0.00000 1.0000
  Bi  Bi 0.09292 0.29292 0.00000 1.0000
  Bi  Bi 0.06516 0.35000 0.00000 1.0000
  Bi  Bi 0.05000 0.36516 0.00000 1.0000
  Bi  Bi 0.03484 0.33484 0.00000 1.0000
  Bi  Bi 0.03484 0.35000 0.00000 1.0000
  Bi  Bi 0.05000 0.33484 0.00000 1.0000
  Bi  Bi 0.06516 0.36516 0.00000 1.0000
  Bi  Bi 0.07994 0.35000 0.00000 1.0000
  Bi  Bi 0.05000 0.37994 0.00000 1.0000
  Bi  Bi 0.02006 0.32006 0.00000 1.0000
  Bi  Bi 0.02006 0.35000 0.00000 1.0000
  Bi  Bi 0.05000 0.32006 0.00000 1.0000
  Bi  Bi 0.07994 0.37994 0.00000 1.0000
  Bi  Bi 0.09292 0.35000 0.00000 1.0000
  Bi  Bi 0.05000 0.39292 0.00000 1.0000
  Bi  Bi 0.00708 0.30708 0.00000 1.0000
  Bi  Bi 0.00708 0.35000 0.00000 1.0000
  Bi  Bi 0.05000 0.30708 0.00000 1.0000
  Bi  Bi 0.09292 0.39292 0.00000 1.0000
  Bi  Bi 0.06516 0.45000 0.00000 1.0000
  Bi  Bi 0.05000 0.46516 0.00000 1.0000
  Bi  Bi 0.03484 0.43484 0.00000 1.0000
  Bi  Bi 0.03484 0.45000 0.00000 1.0000
  Bi  Bi 0.05000 0.43484 0.00000 1.0000
  Bi  Bi 0.06516 0.46516 0.00000 1.0000
  Bi  Bi 0.07994 0.45000 0.00000 1.0000
  Bi  Bi 0.05000 0.47994 0.00000 1.0000
  Bi  Bi 0.02006 0.42006 0.00000 1.0000
  Bi  Bi 0.02006 0.45000 0.00000 1.0000
  Bi  Bi 0.05000 0.42006 0.00000 1.0000
  Bi  Bi 0.07994 0.47994 0.00000 1.0000
  Bi  Bi 0.09292 0.45000 0.00000 1.0000
  Bi  Bi 0.05000 0.49292 0.00000 1.0000
  Bi  Bi 0.00708 0.40708 0.00000 1.0000
  Bi  Bi 0.00708 0.45000 0.00000 1.0000
  Bi  Bi 0.05000 0.40708 0.00000 1.0000
  Bi  Bi 0.09292 0.49292 0.00000 1.0000
  Bi  Bi 0.06516 0.55000 0.00000 1.0000
  Bi  Bi 0.05000 0.56516 0.00000 1.0000
  Bi  Bi 0.03484 0.53484 0.00000 1.0000
  Bi  Bi 0.03484 0.55000 0.00000 1.0000
  Bi  Bi 0.05000 0.53484 0.00000 1.0000
  Bi  Bi 0.06516 0.56516 0.00000 1.0000
  Bi  Bi 0.07994 0.55000 0.00000 1.0000
  Bi  Bi 0.05000 0.57994 0.00000 1.0000
  Bi  Bi 0.02006 0.52006 0.00000 1.0000
  Bi  Bi 0.02006 0.55000 0.00000 1.0000
  Bi  Bi 0.05000 0.52006 0.00000 1.0000
  Bi  Bi 0.07994 0.57994 0.00000 1.0000
  Bi  Bi 0.09292 0.55000 0.00000 1.0000
  Bi  Bi 0.05000 0.59292 0.00000 1.0000
  Bi  Bi 0.00708 0.50708 0.00000 1.0000
  Bi  Bi 0.00708 0.55000 0.00000 1.0000
  Bi  Bi 0.05000 0.50708 0.00000 1.0000
  Bi  Bi 0.09292 0.59292 0.00000 1.0000
  Bi  Bi 0.06516 0.65000 0.00000 1.0000
  Bi  Bi 0.05000 0.66516 0.00000 1.0000
  Bi  Bi 0.03484 0.63484 0.00000 1.0000
  Bi  Bi 0.03484 0.65000 0.00000 1.0000
  Bi  Bi 0.05000 0.63484 0.00000 1.0000
  Bi  Bi 0.06516 0.66516 0.00000 1.0000
  Bi  Bi 0.07994 0.65000 0.00000 1.0000
  Bi  Bi 0.05000 0.67994 0.00000 1.0000
  Bi  Bi 0.02006 0.62006 0.00000 1.0000
  Bi  Bi 0.02006 0.65000 0.00000 1.0000
  Bi  Bi 0.05000 0.62006 0.00000 1.0000
  Bi  Bi 0.07994 0.67994 0.00000 1.0000
  Bi  Bi 0.09292 0.65000 0.00000 1.0000
  Bi  Bi 0.05000 0.69292 0.00000 1.0000
  Bi  Bi 0.00708 0.60708 0.00000 1.0000
  Bi  Bi 0.00708 0.65000 0.00000 1.0000
  Bi  Bi 0.05000 0.60708 0.00000 1.0000
  Bi  Bi 0.09292 0.69292 0.00000 1.0000
  Bi  Bi 0.06516 0.75000 0.00000 1.0000
  Co  Co 0.05000 0.76516 0.00000 1.0000
  Co  Co 0.03484 0.73484 0.00000 1.0000
  Co  Co 0.03484 0.75000 0.00000 1.0000
  Bi  Bi 0.05000 0.73484 0.00000 1.0000
  Bi  Bi 0.06516 0.76516 0.00000 1.0000
  Co  Co 0.07994 0.75000 0.00000 1.0000
  Co  Co 0.05000 0.77994 0.00000 1.0000
  Bi  Bi 0.02006 0.72006 0.00000 1.0000
  Bi  Bi 0.02006 0.75000 0.00000 1.0000
  Bi  Bi 0.05000 0.72006 0.00000 1.0000
  Bi  Bi 0.07994 0.77994 0.00000 1.0000
  Bi  Bi 0.09292 0.75000 0.00000 1.0000
  Bi  Bi 0.05000 0.79292 0.00000 1.0000
  Bi  Bi 0.00708 0.70708 0.00000 1.0000
  Bi  Bi 0.00708 0.75000 0.00000 1.0000
  Bi  Bi 0.05000 0.70708 0.00000 1.0000
  Bi  Bi 0.09292 0.79292 0.00000 1.0000
  Bi  Bi 0.06516 0.85000 0.00000 1.0000
  Co  Co 0.05000 0.86516 0.00000 1.0000
  Co  Co 0.03484 0.83484 0.00000 1.0000
  Co  Co 0.03484 0.85000 0.00000 1.0000
  Co  Co 0.05000 0.83484 0.00000 1.0000
  Co  Co 0.06516 0.86516 0.00000 1.0000
  Co  Co 0.07994 0.85000 0.00000 1.0000
  Co  Co 0.05000 0.87994 0.00000 1.0000
  Co  Co 0.02006 0.82006 0.00000 1.0000
  Co  Co 0.02006 0.85000 0.00000 1.0000
  Bi  Bi 0.05000 0.82006 0.00000 1.0000
  Co  Co 0.07994 0.87994 0.00000 1.0000
  Bi  Bi 0.09292 0.85000 0.00000 1.0000
  Co  Co 0.05000 0.89292 0.00000 1.0000
  Co  Co 0.00708 0.80708 0.00000 1.0000
  Bi  Bi 0.00708 0.85000 0.00000 1.0000
  Bi  Bi 0.05000 0.80708 0.00000 1.0000
  Co  Co 0.09292 0.89292 0.00000 1.0000
  Co  Co 0.06516 0.95000 0.00000 1.0000
  Dy  Dy 0.05000 0.96516 0.00000 1.0000
  Dy  Dy 0.03484 0.93484 0.00000 1.0000
  Dy  Dy 0.03484 0.95000 0.00000 1.0000
  Co  Co 0.05000 0.93484 0.00000 1.0000
  Dy  Dy 0.06516 0.96516 0.00000 1.0000
  Dy  Dy 0.07994 0.95000 0.00000 1.0000
  Dy  Dy 0.05000 0.97994 0.00000 1.0000
  Co  Co 0.02006 0.92006 0.00000 1.0000
  Dy  Dy 0.02006 0.95000 0.00000 1.0000
  Dy  Dy 0.05000 0.92006 0.00000 1.0000
  Co  Co 0.07994 0.97994 0.00000 1.0000
  Co  Co 0.09292 0.95000 0.00000 1.0000
  Co  Co 0.05000 0.99292 0.00000 1.0000
  Co  Co 0.00708 0.90708 0.00000 1.0000
  Co  Co 0.00708 0.95000 0.00000 1.0000
  Co  Co 0.05000 0.90708 0.00000 1.0000
  Co  Co 0.09292 0.99292 0.00000 1.0000
  Bi  Bi 0.16516 0.05000 0.00000 1.0000
  Bi  Bi 0.15000 0.06516 0.00000 1.0000
  Bi  Bi 0.13484 0.03484 0.00000 1.0000
  Bi  Bi 0.13484 0.05000 0.00000 1.0000
  Bi  Bi 0.15000 0.03484 0.00000 1.0000
  Bi  Bi 0.16516 0.06516 0.00000 1.0000
  Bi  Bi 0.17994 0.05000 0.00000 1.0000
  Bi  Bi 0.15000 0.07994 0.00000 1.0000
  Bi  Bi 0.12006 0.02006 0.00000 1.0000
  Bi  Bi 0.12006 0.05000 0.00000 1.0000
  Bi  Bi 0.15000 0.02006 0.00000 1.0000
  Bi  Bi 0.17994 0.07994 0.00000 1.0000
  Bi  Bi 0.19292 0.05000 0.00000 1.0000
  Bi  Bi 0.15000 0.09292 0.00000 1.0000
  Bi  Bi 0.10708 0.00708 0.00000 1.0000
  Bi  Bi 0.10708 0.05000 0.00000 1.0000
  Bi  Bi 0.15000 0.00708 0.00000 1.0000
  Bi  Bi 0.19292 0.09292 0.00000 1.0000
  Bi  Bi 0.16516 0.15000 0.00000 1.0000
  Bi  Bi 0.15000 0.16516 0.00000 1.0000
  Bi  Bi 0.13484 0.13484 0.00000 1.0000
  Bi  Bi 0.13484 0.15000 0.00000 1.0000
  Bi  Bi 0.15000 0.13484 0.00000 1.0000
  Bi  Bi 0.16516 0.16516 0.00000 1.0000
  Bi  Bi 0.17994 0.15000 0.00000 1.0000
  Bi  Bi 0.15000 0.17994 0.00000 1.0000
  Bi  Bi 0.12006 0.12006 0.00000 1.0000
  Bi  Bi 0.12006 0.15000 0.00000 1.0000
  Bi  Bi 0.15000 0.12006 0.00000 1.0000
  Bi  Bi 0.17994 0.17994 0.00000 1.0000
  Bi  Bi 0.19292 0.15000 0.00000 1.0000
  Bi  Bi 0.15000 0.19292 0.00000 1.0000
  Bi  Bi 0.10708 0.10708 0.00000 1.0000
  Bi  Bi 0.10708 0.15000 0.00000 1.0000
  Bi  Bi 0.15000 0.10708 0.00000 1.0000
  Bi  Bi 0.19292 0.19292 0.00000 1.0000
  Bi  Bi 0.16516 0.25000 0.00000 1.0000
  Bi  Bi 0.15000 0.26516 0.00000 1.0000
  Bi  Bi 0.13484 0.23484 0.00000 1.0000
  Bi  Bi 0.13484 0.25000 0.00000 1.0000
  Bi  Bi 0.15000 0.23484 0.00000 1.0000
  Bi  Bi 0.16516 0.26516 0.00000 1.0000
  Bi  Bi 0.17994 0.25000 0.00000 1.0000
  Bi  Bi 0.15000 0.27994 0.00000 1.0000
  Bi  Bi 0.12006 0.22006 0.00000 1.0000
  Bi  Bi 0.12006 0.25000 0.00000 1.0000
  Bi  Bi 0.15000 0.22006 0.00000 1.0000
  Bi  Bi 0.17994 0.27994 0.00000 1.0000
  Bi  Bi 0.19292 0.25000 0.00000 1.0000
  Bi  Bi 0.15000 0.29292 0.00000 1.0000
  Bi  Bi 0.10708 0.20708 0.00000 1.0000
  Bi  Bi 0.10708 0.25000 0.00000 1.0000
  Bi  Bi 0.15000 0.20708 0.00000 1.0000
  Bi  Bi 0.19292 0.29292 0.00000 1.0000
  Bi  Bi 0.16516 0.35000 0.00000 1.0000
  Bi  Bi 0.15000 0.36516 0.00000 1.0000
  Bi  Bi 0.13484 0.33484 0.00000 1.0000
  Bi  Bi 0.13484 0.35000 0.00000 1.0000
  Bi  Bi 0.15000 0.33484 0.00000 1.0000
  Bi  Bi 0.16516 0.36516 0.00000 1.0000
  Bi  Bi 0.17994 0.35000 0.00000 1.0000
  Bi  Bi 0.15000 0.37994 0.00000 1.0000
  Bi  Bi 0.12006 0.32006 0.00000 1.0000
  Bi  Bi 0.12006 0.35000 0.00000 1.0000
  Bi  Bi 0.15000 0.32006 0.00000 1.0000
  Bi  Bi 0.17994 0.37994 0.00000 1.0000
  Bi  Bi 0.19292 0.35000 0.00000 1.0000
  Bi  Bi 0.15000 0.39292 0.00000 1.0000
  Bi  Bi 0.10708 0.30708 0.00000 1.0000
  Bi  Bi 0.10708 0.35000 0.00000 1.0000
  Bi  Bi 0.15000 0.30708 0.00000 1.0000
  Bi  Bi 0.19292 0.39292 0.00000 1.0000
  Bi  Bi 0.16516 0.45000 0.00000 1.0000
  Bi  Bi 0.15000 0.46516 0.00000 1.0000
  Bi  Bi 0.13484 0.43484 0.00000 1.0000
  Bi  Bi 0.13484 0.45000 0.00000 1.0000
  Bi  Bi 0.15000 0.43484 0.00000 1.0000
  Bi  Bi 0.16516 0.46516 0.00000 1.0000
  Bi  Bi 0.17994 0.45000 0.00000 1.0000
  Bi  Bi 0.15000 0.47994 0.00000 1.0000
  Bi  Bi 0.12006 0.42006 0.00000 1.0000
  Bi  Bi 0.12006 0.45000 0.00000 1.0000
  Bi  Bi 0.15000 0.42006 0.00000 1.0000
  Bi  Bi 0.17994 0.47994 0.00000 1.0000
  Bi  Bi 0.19292 0.45000 0.00000 1.0000
  Bi  Bi 0.15000 0.49292 0.00000 1.0000
  Bi  Bi 0.10708 0.40708 0.00000 1.0000
  Bi  Bi 0.10708 0.45000 0.00000 1.0000
  Bi  Bi 0.15000 0.40708 0.00000 1.0000
  Bi  Bi 0.19292 0.49292 0.00000 1.0000
  Bi  Bi 0.16516 0.55000 0.00000 1.0000
  Bi  Bi 0.15000 0.56516 0.00000 1.0000
  Bi  Bi 0.13484 0.53484 0.00000 1.0000
  Bi  Bi 0.13484 0.55000 0.00000 1.0000
  Bi  Bi 0.15000 0.53484 0.00000 1.0000
  Bi  Bi 0.16516 0.56516 0.00000 1.0000
  Bi  Bi 0.17994 0.55000 0.00000 1.0000
  Bi  Bi 0.15000 0.57994 0.00000 1.0000
  Bi  Bi 0.12006 0.52006 0.00000 1.0000
  Bi  Bi 0.12006 0.55000 0.00000 1.0000
  Bi  Bi 0.15000 0.52006 0.00000 1.0000
  Bi  Bi 0.17994 0.57994 0.00000 1.0000
  Bi  Bi 0.19292 0.55000 0.00000 1.0000
  Bi  Bi 0.15000 0.59292 0.00000 1.0000
  Bi  Bi 0.10708 0.50708 0.00000 1.0000
  Bi  Bi 0.10708 0.55000 0.00000 1.0000
  Bi  Bi 0.15000 0.50708 0.00000 1.0000
  Bi  Bi 0.19292 0.59292 0.00000 1.0000
  Bi  Bi 0.16516 0.65000 0.00000 1.0000
  Bi  Bi 0.15000 0.66516 0.00000 1.0000
  Bi  Bi 0.13484 0.63484 0.00000 1.0000
  Bi  Bi 0.13484 0.65000 0.00000 1.0000
  Bi  Bi 0.15000 0.63484 0.00000 1.0000
  Bi  Bi 0.16516 0.66516 0.00000 1.0000
  Bi  Bi 0.17994 0.65000 0.00000 1.0000
  Bi  Bi 0.15000 0.67994 0.00000 1.0000
  Bi  Bi 0.12006 0.62006 0.00000 1.0000
  Bi  Bi 0.12006 0.65000 0.00000 1.0000
  Bi  Bi 0.15000 0.62006 0.00000 1.0000
  Bi  Bi 0.17994 0.67994 0.00000 1.0000
  Bi  Bi 0.19292 0.65000 0.00000 1.0000
  Bi  Bi 0.15000 0.69292 0.00000 1.0000
  Bi  Bi 0.10708 0.60708 0.00000 1.0000
  Bi  Bi 0.10708 0.65000 0.00000 1.0000
  Bi  Bi 0.15000 0.60708 0.00000 1.0000
  Bi  Bi 0.19292 0.69292 0.00000 1.0000
  Bi  Bi 0.16516 0.75000 0.00000 1.0000
  Bi  Bi 0.15000 0.76516 0.00000 1.0000
  Bi  Bi 0.13484 0.73484 0.00000 1.0000
  Bi  Bi 0.13484 0.75000 0.00000 1.0000
  Bi  Bi 0.15000 0.73484 0.00000 1.0000
  Bi  Bi 0.16516 0.76516 0.00000 1.0000
  Bi  Bi 0.17994 0.75000 0.00000 1.0000
  Bi  Bi 0.15000 0.77994 0.00000 1.0000
  Bi  Bi 0.12006 0.72006 0.00000 1.0000
  Bi  Bi 0.12006 0.75000 0.00000 1.0000
  Bi  Bi 0.15000 0.72006 0.00000 1.0000
  Bi  Bi 0.17994 0.77994 0.00000 1.0000
  Bi  Bi 0.19292 0.75000 0.00000 1.0000
  Bi  Bi 0.15000 0.79292 0.00000 1.0000
  Bi  Bi 0.10708 0.70708 0.00000 1.0000
  Bi  Bi 0.10708 0.75000 0.00000 1.0000
  Bi  Bi 0.15000 0.70708 0.00000 1.0000
  Bi  Bi 0.19292 0.79292 0.00000 1.0000
  Bi  Bi 0.16516 0.85000 0.00000 1.0000
  Co  Co 0.15000 0.86516 0.00000 1.0000
  Bi  Bi 0.13484 0.83484 0.00000 1.0000
  Co  Co 0.13484 0.85000 0.00000 1.0000
  Bi  Bi 0.15000 0.83484 0.00000 1.0000
  Bi  Bi 0.16516 0.86516 0.00000 1.0000
  Bi  Bi 0.17994 0.85000 0.00000 1.0000
  Co  Co 0.15000 0.87994 0.00000 1.0000
  Bi  Bi 0.12006 0.82006 0.00000 1.0000
  Co  Co 0.12006 0.85000 0.00000 1.0000
  Bi  Bi 0.15000 0.82006 0.00000 1.0000
  Bi  Bi 0.17994 0.87994 0.00000 1.0000
  Bi  Bi 0.19292 0.85000 0.00000 1.0000
  Bi  Bi 0.15000 0.89292 0.00000 1.0000
  Bi  Bi 0.10708 0.80708 0.00000 1.0000
  Bi  Bi 0.10708 0.85000 0.00000 1.0000
  Bi  Bi 0.15000 0.80708 0.00000 1.0000
  Bi  Bi 0.19292 0.89292 0.00000 1.0000
  Co  Co 0.16516 0.95000 0.00000 1.0000
  Co  Co 0.15000 0.96516 0.00000 1.0000
  Co  Co 0.13484 0.93484 0.00000 1.0000
  Co  Co 0.13484 0.95000 0.00000 1.0000
  Bi  Bi 0.15000 0.93484 0.00000 1.0000
  Co  Co 0.16516 0.96516 0.00000 1.0000
  Bi  Bi 0.17994 0.95000 0.00000 1.0000
  Co  Co 0.15000 0.97994 0.00000 1.0000
  Co  Co 0.12006 0.92006 0.00000 1.0000
  Co  Co 0.12006 0.95000 0.00000 1.0000
  Co  Co 0.15000 0.92006 0.00000 1.0000
  Co  Co 0.17994 0.97994 0.00000 1.0000
  Bi  Bi 0.19292 0.95000 0.00000 1.0000
  Bi  Bi 0.15000 0.99292 0.00000 1.0000
  Co  Co 0.10708 0.90708 0.00000 1.0000
  Co  Co 0.10708 0.95000 0.00000 1.0000
  Bi  Bi 0.15000 0.90708 0.00000 1.0000
  Co  Co 0.19292 0.99292 0.00000 1.0000
  Bi  Bi 0.26516 0.05000 0.00000 1.0000
  Bi  Bi 0.25000 0.06516 0.00000 1.0000
  Bi  Bi 0.23484 0.03484 0.00000 1.0000
  Bi  Bi 0.23484 0.05000 0.00000 1.0000
  Bi  Bi 0.25000 0.03484 0.00000 1.0000
  Bi  Bi 0.26516 0.06516 0.00000 1.0000
  Bi  Bi 0.27994 0.05000 0.00000 1.0000
  Bi  Bi 0.25000 0.07994 0.00000 1.0000
  Bi  Bi 0.22006 0.02006 0.00000 1.0000
  Bi  Bi 0.22006 0.05000 0.00000 1.0000
  Bi  Bi 0.25000 0.02006 0.00000 1.0000
  Bi  Bi 0.27994 0.07994 0.00000 1.0000
  Bi  Bi 0.29292 0.05000 0.00000 1.0000
  Bi  Bi 0.25000 0.09292 0.00000 1.0000
  Bi  Bi 0.20708 0.00708 0.00000 1.0000
  Bi  Bi 0.20708 0.05000 0.00000 1.0000
  Bi  Bi 0.25000 0.00708 0.00000 1.0000
  Bi  Bi 0.29292 0.09292 0.00000 1.0000
  Bi  Bi 0.26516 0.15000 0.00000 1.0000
  Bi  Bi 0.25000 0.16516 0.00000 1.0000
  Bi  Bi 0.23484 0.13484 0.00000 1.0000
  Bi  Bi 0.23484 0.15000 0.00000 1.0000
  Bi  Bi 0.25000 0.13484 0.00000 1.0000
  Bi  Bi 0.26516 0.16516 0.00000 1.0000
  Bi  Bi 0.27994 0.15000 0.00000 1.0000
  Bi  Bi 0.25000 0.17994 0.00000 1.0000
  Bi  Bi 0.22006 0.12006 0.00000 1.0000
  Bi  Bi 0.22006 0.15000 0.00000 1.0000
  Bi  Bi 0.25000 0.12006 0.00000 1.0000
  Bi  Bi 0.27994 0.17994 0.00000 1.0000
  Bi  Bi 0.29292 0.15000 0.00000 1.0000
  Bi  Bi 0.25000 0.19292 0.00000 1.0000
  Bi  Bi 0.20708 0.10708 0.00000 1.0000
  Bi  Bi 0.20708 0.15000 0.00000 1.0000
  Bi  Bi 0.25000 0.10708 0.00000 1.0000
  Bi  Bi 0.29292 0.19292 0.00000 1.0000
  Bi  Bi 0.26516 0.25000 0.00000 1.0000
  Bi  Bi 0.25000 0.26516 0.00000 1.0000
  Bi  Bi 0.23484 0.23484 0.00000 1.0000
  Bi  Bi 0.23484 0.25000 0.00000 1.0000
  Bi  Bi 0.25000 0.23484 0.00000 1.0000
  Bi  Bi 0.26516 0.26516 0.00000 1.0000
  Bi  Bi 0.27994 0.25000 0.00000 1.0000
  Bi  Bi 0.25000 0.27994 0.00000 1.0000
  Bi  Bi 0.22006 0.22006 0.00000 1.0000
  Bi  Bi 0.22006 0.25000 0.00000 1.0000
  Bi  Bi 0.25000 0.22006 0.00000 1.0000
  Bi  Bi 0.27994 0.27994 0.00000 1.0000
  Bi  Bi 0.29292 0.25000 0.00000 1.0000
  Bi  Bi 0.25000 0.29292 0.00000 1.0000
  Bi  Bi 0.20708 0.20708 0.00000 1.0000
  Bi  Bi 0.20708 0.25000 0.00000 1.0000
  Bi  Bi 0.25000 0.20708 0.00000 1.0000
  Bi  Bi 0.29292 0.29292 0.00000 1.0000
  Bi  Bi 0.26516 0.35000 0.00000 1.0000
  Bi  Bi 0.25000 0.36516 0.00000 1.0000
  Bi  Bi 0.23484 0.33484 0.00000 1.0000
  Bi  Bi 0.23484 0.35000 0.00000 1.0000
  Bi  Bi 0.25000 0.33484 0.00000 1.0000
  Bi  Bi 0.26516 0.36516 0.00000 1.0000
  Bi  Bi 0.27994 0.35000 0.00000 1.0000
  Bi  Bi 0.25000 0.37994 0.00000 1.0000
  Bi  Bi 0.22006 0.32006 0.00000 1.0000
  Bi  Bi 0.22006 0.35000 0.00000 1.0000
  Bi  Bi 0.25000 0.32006 0.00000 1.0000
  Bi  Bi 0.27994 0.37994 0.00000 1.0000
  Bi  Bi 0.29292 0.35000 0.00000 1.0000
  Bi  Bi 0.25000 0.39292 0.00000 1.0000
  Bi  Bi 0.20708 0.30708 0.00000 1.0000
  Bi  Bi 0.20708 0.35000 0.00000 1.0000
  Bi  Bi 0.25000 0.30708 0.00000 1.0000
  Bi  Bi 0.29292 0.39292 0.00000 1.0000
  Bi  Bi 0.26516 0.45000 0.00000 1.0000
  Bi  Bi 0.25000 0.46516 0.00000 1.0000
  Bi  Bi 0.23484 0.43484 0.00000 1.0000
  Bi  Bi 0.23484 0.45000 0.00000 1.0000
  Bi  Bi 0.25000 0.43484 0.00000 1.0000
  Bi  Bi 0.26516 0.46516 0.00000 1.0000
  Bi  Bi 0.27994 0.45000 0.00000 1.0000
  Bi  Bi 0.25000 0.47994 0.00000 1.0000
  Bi  Bi 0.22006 0.42006 0.00000 1.0000
  Bi  Bi 0.22006 0.45000 0.00000 1.0000
  Bi  Bi 0.25000 0.42006 0.00000 1.0000
  Bi  Bi 0.27994 0.47994 0.00000 1.0000
  Bi  Bi 0.29292 0.45000 0.00000 1.0000
  Bi  Bi 0.25000 0.49292 0.00000 1.0000
  Bi  Bi 0.20708 0.40708 0.00000 1.0000
  Bi  Bi 0.20708 0.45000 0.00000 1.0000
  Bi  Bi 0.25000 0.40708 0.00000 1.0000
  Bi  Bi 0.29292 0.49292 0.00000 1.0000
  Bi  Bi 0.26516 0.55000 0.00000 1.0000
  Bi  Bi 0.25000 0.56516 0.00000 1.0000
  Bi  Bi 0.23484 0.53484 0.00000 1.0000
  Bi  Bi 0.23484 0.55000 0.00000 1.0000
  Bi  Bi 0.25000 0.53484 0.00000 1.0000
  Bi  Bi 0.26516 0.56516 0.00000 1.0000
  Bi  Bi 0.27994 0.55000 0.00000 1.0000
  Bi  Bi 0.25000 0.57994 0.00000 1.0000
  Bi  Bi 0.22006 0.52006 0.00000 1.0000
  Bi  Bi 0.22006 0.55000 0.00000 1.0000
  Bi  Bi 0.25000 0.52006 0.00000 1.0000
  Bi  Bi 0.27994 0.57994 0.00000 1.0000
  Bi  Bi 0.29292 0.55000 0.00000 1.0000
  Bi  Bi 0.25000 0.59292 0.00000 1.0000
  Bi  Bi 0.20708 0.50708 0.00000 1.0000
  Bi  Bi 0.20708 0.55000 0.00000 1.0000
  Bi  Bi 0.25000 0.50708 0.00000 1.0000
  Bi  Bi 0.29292 0.59292 0.00000 1.0000
  Bi  Bi 0.26516 0.65000 0.00000 1.0000
  Bi  Bi 0.25000 0.66516 0.00000 1.0000
  Bi  Bi 0.23484 0.63484 0.00000 1.0000
  Bi  Bi 0.23484 0.65000 0.00000 1.0000
  Bi  Bi 0.25000 0.63484 0.00000 1.0000
  Bi  Bi 0.26516 0.66516 0.00000 1.0000
  Bi  Bi 0.27994 0.65000 0.00000 1.0000
  Bi  Bi 0.25000 0.67994 0.00000 1.0000
  Bi  Bi 0.22006 0.62006 0.00000 1.0000
  Bi  Bi 0.22006 0.65000 0.00000 1.0000
  Bi  Bi 0.25000 0.62006 0.00000 1.0000
  Bi  Bi 0.27994 0.67994 0.00000 1.0000
  Bi  Bi 0.29292 0.65000 0.00000 1.0000
  Bi  Bi 0.25000 0.69292 0.00000 1.0000
  Bi  Bi 0.20708 0.60708 0.00000 1.0000
  Bi  Bi 0.20708 0.65000 0.00000 1.0000
  Bi  Bi 0.25000 0.60708 0.00000 1.0000
  Bi  Bi 0.29292 0.69292 0.00000 1.0000
  Bi  Bi 0.26516 0.75000 0.00000 1.0000
  Bi  Bi 0.25000 0.76516 0.00000 1.0000
  Bi  Bi 0.23484 0.73484 0.00000 1.0000
  Bi  Bi 0.23484 0.75000 0.00000 1.0000
  Bi  Bi 0.25000 0.73484 0.00000 1.0000
  Bi  Bi 0.26516 0.76516 0.00000 1.0000
  Bi  Bi 0.27994 0.75000 0.00000 1.0000
  Bi  Bi 0.25000 0.77994 0.00000 1.0000
  Bi  Bi 0.22006 0.72006 0.00000 1.0000
  Bi  Bi 0.22006 0.75000 0.00000 1.0000
  Bi  Bi 0.25000 0.72006 0.00000 1.0000
  Bi  Bi 0.27994 0.77994 0.00000 1.0000
  Bi  Bi 0.29292 0.75000 0.00000 1.0000
  Bi  Bi 0.25000 0.79292 0.00000 1.0000
  Bi  Bi 0.20708 0.70708 0.00000 1.0000
  Bi  Bi 0.20708 0.75000 0.00000 1.0000
  Bi  Bi 0.25000 0.70708 0.00000 1.0000
  Bi  Bi 0.29292 0.79292 0.00000 1.0000
  Bi  Bi 0.26516 0.85000 0.00000 1.0000
  Bi  Bi 0.25000 0.86516 0.00000 1.0000
  Bi  Bi 0.23484 0.83484 0.00000 1.0000
  Bi  Bi 0.23484 0.85000 0.00000 1.0000
  Bi  Bi 0.25000 0.83484 0.00000 1.0000
  Bi  Bi 0.26516 0.86516 0.00000 1.0000
  Bi  Bi 0.27994 0.85000 0.00000 1.0000
  Bi  Bi 0.25000 0.87994 0.00000 1.0000
  Bi  Bi 0.22006 0.82006 0.00000 1.0000
  Bi  Bi 0.22006 0.85000 0.00000 1.0000
  Bi  Bi 0.25000 0.82006 0.00000 1.0000
  Bi  Bi 0.27994 0.87994 0.00000 1.0000
  Bi  Bi 0.29292 0.85000 0.00000 1.0000
  Bi  Bi 0.25000 0.89292 0.00000 1.0000
  Bi  Bi 0.20708 0.80708 0.00000 1.0000
  Bi  Bi 0.20708 0.85000 0.00000 1.0000
  Bi  Bi 0.25000 0.80708 0.00000 1.0000
  Bi  Bi 0.29292 0.89292 0.00000 1.0000
  Bi  Bi 0.26516 0.95000 0.00000 1.0000
  Co  Co 0.25000 0.96516 0.00000 1.0000
  Bi  Bi 0.23484 0.93484 0.00000 1.0000
  Co  Co 0.23484 0.95000 0.00000 1.0000
  Bi  Bi 0.25000 0.93484 0.00000 1.0000
  Co  Co 0.26516 0.96516 0.00000 1.0000
  Bi  Bi 0.27994 0.95000 0.00000 1.0000
  Bi  Bi 0.25000 0.97994 0.00000 1.0000
  Bi  Bi 0.22006 0.92006 0.00000 1.0000
  Co  Co 0.22006 0.95000 0.00000 1.0000
  Co  Co 0.25000 0.92006 0.00000 1.0000
  Bi  Bi 0.27994 0.97994 0.00000 1.0000
  Bi  Bi 0.29292 0.95000 0.00000 1.0000
  Bi  Bi 0.25000 0.99292 0.00000 1.0000
  Bi  Bi 0.20708 0.90708 0.00000 1.0000
  Bi  Bi 0.20708 0.95000 0.00000 1.0000
  Bi  Bi 0.25000 0.90708 0.00000 1.0000
  Bi  Bi 0.29292 0.99292 0.00000 1.0000
  Bi  Bi 0.36516 0.05000 0.00000 1.0000
  Bi  Bi 0.35000 0.06516 0.00000 1.0000
  Bi  Bi 0.33484 0.03484 0.00000 1.0000
  Bi  Bi 0.33484 0.05000 0.00000 1.0000
  Bi  Bi 0.35000 0.03484 0.00000 1.0000
  Bi  Bi 0.36516 0.06516 0.00000 1.0000
  Bi  Bi 0.37994 0.05000 0.00000 1.0000
  Bi  Bi 0.35000 0.07994 0.00000 1.0000
  Bi  Bi 0.32006 0.02006 0.00000 1.0000
  Bi  Bi 0.32006 0.05000 0.00000 1.0000
  Bi  Bi 0.35000 0.02006 0.00000 1.0000
  Bi  Bi 0.37994 0.07994 0.00000 1.0000
  Bi  Bi 0.39292 0.05000 0.00000 1.0000
  Bi  Bi 0.35000 0.09292 0.00000 1.0000
  Bi  Bi 0.30708 0.00708 0.00000 1.0000
  Bi  Bi 0.30708 0.05000 0.00000 1.0000
  Bi  Bi 0.35000 0.00708 0.00000 1.0000
  Bi  Bi 0.39292 0.09292 0.00000 1.0000
  Bi  Bi 0.36516 0.15000 0.00000 1.0000
  Bi  Bi 0.35000 0.16516 0.00000 1.0000
  Bi  Bi 0.33484 0.13484 0.00000 1.0000
  Bi  Bi 0.33484 0.15000 0.00000 1.0000
  Bi  Bi 0.35000 0.13484 0.00000 1.0000
  Bi  Bi 0.36516 0.16516 0.00000 1.0000
  Bi  Bi 0.37994 0.15000 0.00000 1.0000
  Bi  Bi 0.35000 0.17994 0.00000 1.0000
  Bi  Bi 0.32006 0.12006 0.00000 1.0000
  Bi  Bi 0.32006 0.15000 0.00000 1.0000
  Bi  Bi 0.35000 0.12006 0.00000 1.0000
  Bi  Bi 0.37994 0.17994 0.00000 1.0000
  Bi  Bi 0.39292 0.15000 0.00000 1.0000
  Bi  Bi 0.35000 0.19292 0.00000 1.0000
  Bi  Bi 0.30708 0.10708 0.00000 1.0000
  Bi  Bi 0.30708 0.15000 0.00000 1.0000
  Bi  Bi 0.35000 0.10708 0.00000 1.0000
  Bi  Bi 0.39292 0.19292 0.00000 1.0000
  Bi  Bi 0.36516 0.25000 0.00000 1.0000
  Bi  Bi 0.35000 0.26516 0.00000 1.0000
  Bi  Bi 0.33484 0.23484 0.00000 1.0000
  Bi  Bi 0.33484 0.25000 0.00000 1.0000
  Bi  Bi 0.35000 0.23484 0.00000 1.0000
  Bi  Bi 0.36516 0.26516 0.00000 1.0000
  Bi  Bi 0.37994 0.25000 0.00000 1.0000
  Bi  Bi 0.35000 0.27994 0.00000 1.0000
  Bi  Bi 0.32006 0.22006 0.00000 1.0000
  Bi  Bi 0.32006 0.25000 0.00000 1.0000
  Bi  Bi 0.35000 0.22006 0.00000 1.0000
  Bi  Bi 0.37994 0.27994 0.00000 1.0000
  Bi  Bi 0.39292 0.25000 0.00000 1.0000
  Bi  Bi 0.35000 0.29292 0.00000 1.0000
  Bi  Bi 0.30708 0.20708 0.00000 1.0000
  Bi  Bi 0.30708 0.25000 0.00000 1.0000
  Bi  Bi 0.35000 0.20708 0.00000 1.0000
  Bi  Bi 0.39292 0.29292 0.00000 1.0000
  Bi  Bi 0.36516 0.35000 0.00000 1.0000
  Bi  Bi 0.35000 0.36516 0.00000 1.0000
  Bi  Bi 0.33484 0.33484 0.00000 1.0000
  Bi  Bi 0.33484 0.35000 0.00000 1.0000
  Bi  Bi 0.35000 0.33484 0.00000 1.0000
  Bi  Bi 0.36516 0.36516 0.00000 1.0000
  Bi  Bi 0.37994 0.35000 0.00000 1.0000
  Bi  Bi 0.35000 0.37994 0.00000 1.0000
  Bi  Bi 0.32006 0.32006 0.00000 1.0000
  Bi  Bi 0.32006 0.35000 0.00000 1.0000
  Bi  Bi 0.35000 0.32006 0.00000 1.0000
  Bi  Bi 0.37994 0.37994 0.00000 1.0000
  Bi  Bi 0.39292 0.35000 0.00000 1.0000
  Bi  Bi 0.35000 0.39292 0.00000 1.0000
  Bi  Bi 0.30708 0.30708 0.00000 1.0000
  Bi  Bi 0.30708 0.35000 0.00000 1.0000
  Bi  Bi 0.35000 0.30708 0.00000 1.0000
  Bi  Bi 0.39292 0.39292 0.00000 1.0000
  Bi  Bi 0.36516 0.45000 0.00000 1.0000
  Bi  Bi 0.35000 0.46516 0.00000 1.0000
  Bi  Bi 0.33484 0.43484 0.00000 1.0000
  Bi  Bi 0.33484 0.45000 0.00000 1.0000
  Bi  Bi 0.35000 0.43484 0.00000 1.0000
  Bi  Bi 0.36516 0.46516 0.00000 1.0000
  Bi  Bi 0.37994 0.45000 0.00000 1.0000
  Bi  Bi 0.35000 0.47994 0.00000 1.0000
  Bi  Bi 0.32006 0.42006 0.00000 1.0000
  Bi  Bi 0.32006 0.45000 0.00000 1.0000
  Bi  Bi 0.35000 0.42006 0.00000 1.0000
  Bi  Bi 0.37994 0.47994 0.00000 1.0000
  Bi  Bi 0.39292 0.45000 0.00000 1.0000
  Bi  Bi 0.35000 0.49292 0.00000 1.0000
  Bi  Bi 0.30708 0.40708 0.00000 1.0000
  Bi  Bi 0.30708 0.45000 0.00000 1.0000
  Bi  Bi 0.35000 0.40708 0.00000 1.0000
  Bi  Bi 0.39292 0.49292 0.00000 1.0000
  Bi  Bi 0.36516 0.55000 0.00000 1.0000
  Bi  Bi 0.35000 0.56516 0.00000 1.0000
  Bi  Bi 0.33484 0.53484 0.00000 1.0000
  Bi  Bi 0.33484 0.55000 0.00000 1.0000
  Bi  Bi 0.35000 0.53484 0.00000 1.0000
  Bi  Bi 0.36516 0.56516 0.00000 1.0000
  Bi  Bi 0.37994 0.55000 0.00000 1.0000
  Bi  Bi 0.35000 0.57994 0.00000 1.0000
  Bi  Bi 0.32006 0.52006 0.00000 1.0000
  Bi  Bi 0.32006 0.55000 0.00000 1.0000
  Bi  Bi 0.35000 0.52006 0.00000 1.0000
  Bi  Bi 0.37994 0.57994 0.00000 1.0000
  Bi  Bi 0.39292 0.55000 0.00000 1.0000
  Bi  Bi 0.35000 0.59292 0.00000 1.0000
  Bi  Bi 0.30708 0.50708 0.00000 1.0000
  Bi  Bi 0.30708 0.55000 0.00000 1.0000
  Bi  Bi 0.35000 0.50708 0.00000 1.0000
  Bi  Bi 0.39292 0.59292 0.00000 1.0000
  Bi  Bi 0.36516 0.65000 0.00000 1.0000
  Bi  Bi 0.35000 0.66516 0.00000 1.0000
  Bi  Bi 0.33484 0.63484 0.00000 1.0000
  Bi  Bi 0.33484 0.65000 0.00000 1.0000
  Bi  Bi 0.35000 0.63484 0.00000 1.0000
  Bi  Bi 0.36516 0.66516 0.00000 1.0000
  Bi  Bi 0.37994 0.65000 0.00000 1.0000
  Bi  Bi 0.35000 0.67994 0.00000 1.0000
  Bi  Bi 0.32006 0.62006 0.00000 1.0000
  Bi  Bi 0.32006 0.65000 0.00000 1.0000
  Bi  Bi 0.35000 0.62006 0.00000 1.0000
  Bi  Bi 0.37994 0.67994 0.00000 1.0000
  Bi  Bi 0.39292 0.65000 0.00000 1.0000
  Bi  Bi 0.35000 0.69292 0.00000 1.0000
  Bi  Bi 0.30708 0.60708 0.00000 1.0000
  Bi  Bi 0.30708 0.65000 0.00000 1.0000
  Bi  Bi 0.35000 0.60708 0.00000 1.0000
  Bi  Bi 0.39292 0.69292 0.00000 1.0000
  Bi  Bi 0.36516 0.75000 0.00000 1.0000
  Bi  Bi 0.35000 0.76516 0.00000 1.0000
  Bi  Bi 0.33484 0.73484 0.00000 1.0000
  Bi  Bi 0.33484 0.75000 0.00000 1.0000
  Bi  Bi 0.35000 0.73484 0.00000 1.0000
  Bi  Bi 0.36516 0.76516 0.00000 1.0000
  Bi  Bi 0.37994 0.75000 0.00000 1.0000
  Bi  Bi 0.35000 0.77994 0.00000 1.0000
  Bi  Bi 0.32006 0.72006 0.00000 1.0000
  Bi  Bi 0.32006 0.75000 0.00000 1.0000
  Bi  Bi 0.35000 0.72006 0.00000 1.0000
  Bi  Bi 0.37994 0.77994 0.00000 1.0000
  Bi  Bi 0.39292 0.75000 0.00000 1.0000
  Bi  Bi 0.35000 0.79292 0.00000 1.0000
  Bi  Bi 0.30708 0.70708 0.00000 1.0000
  Bi  Bi 0.30708 0.75000 0.00000 1.0000
  Bi  Bi 0.35000 0.70708 0.00000 1.0000
  Bi  Bi 0.39292 0.79292 0.00000 1.0000
  Bi  Bi 0.36516 0.85000 0.00000 1.0000
  Bi  Bi 0.35000 0.86516 0.00000 1.0000
  Bi  Bi 0.33484 0.83484 0.00000 1.0000
  Bi  Bi 0.33484 0.85000 0.00000 1.0000
  Bi  Bi 0.35000 0.83484 0.00000 1.0000
  Bi  Bi 0.36516 0.86516 0.00000 1.0000
  Bi  Bi 0.37994 0.85000 0.00000 1.0000
  Bi  Bi 0.35000 0.87994 0.00000 1.0000
  Bi  Bi 0.32006 0.82006 0.00000 1.0000
  Bi  Bi 0.32006 0.85000 0.00000 1.0000
  Bi  Bi 0.35000 0.82006 0.00000 1.0000
  Bi  Bi 0.37994 0.87994 0.00000 1.0000
  Bi  Bi 0.39292 0.85000 0.00000 1.0000
  Bi  Bi 0.35000 0.89292 0.00000 1.0000
  Bi  Bi 0.30708 0.80708 0.00000 1.0000
  Bi  Bi 0.30708 0.85000 0.00000 1.0000
  Bi  Bi 0.35000 0.80708 0.00000 1.0000
  Bi  Bi 0.39292 0.89292 0.00000 1.0000
  Bi  Bi 0.36516 0.95000 0.00000 1.0000
  Bi  Bi 0.35000 0.96516 0.00000 1.0000
  Bi  Bi 0.33484 0.93484 0.00000 1.0000
  Bi  Bi 0.33484 0.95000 0.00000 1.0000
  Bi  Bi 0.35000 0.93484 0.00000 1.0000
  Bi  Bi 0.36516 0.96516 0.00000 1.0000
  Bi  Bi 0.37994 0.95000 0.00000 1.0000
  Bi  Bi 0.35000 0.97994 0.00000 1.0000
  Bi  Bi 0.32006 0.92006 0.00000 1.0000
  Bi  Bi 0.32006 0.95000 0.00000 1.0000
  Bi  Bi 0.35000 0.92006 0.00000 1.0000
  Bi  Bi 0.37994 0.97994 0.00000 1.0000
  Bi  Bi 0.39292 0.95000 0.00000 1.0000
  Bi  Bi 0.35000 0.99292 0.00000 1.0000
  Bi  Bi 0.30708 0.90708 0.00000 1.0000
  Bi  Bi 0.30708 0.95000 0.00000 1.0000
  Bi  Bi 0.35000 0.90708 0.00000 1.0000
  Bi  Bi 0.39292 0.99292 0.00000 1.0000
  Bi  Bi 0.46516 0.05000 0.00000 1.0000
  Bi  Bi 0.45000 0.06516 0.00000 1.0000
  Bi  Bi 0.43484 0.03484 0.00000 1.0000
  Bi  Bi 0.43484 0.05000 0.00000 1.0000
  Bi  Bi 0.45000 0.03484 0.00000 1.0000
  Bi  Bi 0.46516 0.06516 0.00000 1.0000
  Bi  Bi 0.47994 0.05000 0.00000 1.0000
  Bi  Bi 0.45000 0.07994 0.00000 1.0000
  Bi  Bi 0.42006 0.02006 0.00000 1.0000
  Bi  Bi 0.42006 0.05000 0.00000 1.0000
  Bi  Bi 0.45000 0.02006 0.00000 1.0000
  Bi  Bi 0.47994 0.07994 0.00000 1.0000
  Bi  Bi 0.49292 0.05000 0.00000 1.0000
  Bi  Bi 0.45000 0.09292 0.00000 1.0000
  Bi  Bi 0.40708 0.00708 0.00000 1.0000
  Bi  Bi 0.40708 0.05000 0.00000 1.0000
  Bi  Bi 0.45000 0.00708 0.00000 1.0000
  Bi  Bi 0.49292 0.09292 0.00000 1.0000
  Bi  Bi 0.46516 0.15000 0.00000 1.0000
  Bi  Bi 0.45000 0.16516 0.00000 1.0000
  Bi  Bi 0.43484 0.13484 0.00000 1.0000
  Bi  Bi 0.43484 0.15000 0.00000 1.0000
  Bi  Bi 0.45000 0.13484 0.00000 1.0000
  Bi  Bi 0.46516 0.16516 0.00000 1.0000
  Bi  Bi 0.47994 0.15000 0.00000 1.0000
  Bi  Bi 0.45000 0.17994 0.00000 1.0000
  Bi  Bi 0.42006 0.12006 0.00000 1.0000
  Bi  Bi 0.42006 0.15000 0.00000 1.0000
  Bi  Bi 0.45000 0.12006 0.00000 1.0000
  Bi  Bi 0.47994 0.17994 0.00000 1.0000
  Bi  Bi 0.49292 0.15000 0.00000 1.0000
  Bi  Bi 0.45000 0.19292 0.00000 1.0000
  Bi  Bi 0.40708 0.10708 0.00000 1.0000
  Bi  Bi 0.40708 0.15000 0.00000 1.0000
  Bi  Bi 0.45000 0.10708 0.00000 1.0000
  Bi  Bi 0.49292 0.19292 0.00000 1.0000
  Bi  Bi 0.46516 0.25000 0.00000 1.0000
  Bi  Bi 0.45000 0.26516 0.00000 1.0000
  Bi  Bi 0.43484 0.23484 0.00000 1.0000
  Bi  Bi 0.43484 0.25000 0.00000 1.0000
  Bi  Bi 0.45000 0.23484 0.00000 1.0000
  Bi  Bi 0.46516 0.26516 0.00000 1.0000
  Bi  Bi 0.47994 0.25000 0.00000 1.0000
  Bi  Bi 0.45000 0.27994 0.00000 1.0000
  Bi  Bi 0.42006 0.22006 0.00000 1.0000
  Bi  Bi 0.42006 0.25000 0.00000 1.0000
  Bi  Bi 0.45000 0.22006 0.00000 1.0000
  Bi  Bi 0.47994 0.27994 0.00000 1.0000
  Bi  Bi 0.49292 0.25000 0.00000 1.0000
  Bi  Bi 0.45000 0.29292 0.00000 1.0000
  Bi  Bi 0.40708 0.20708 0.00000 1.0000
  Bi  Bi 0.40708 0.25000 0.00000 1.0000
  Bi  Bi 0.45000 0.20708 0.00000 1.0000
  Bi  Bi 0.49292 0.29292 0.00000 1.0000
  Bi  Bi 0.46516 0.35000 0.00000 1.0000
  Bi  Bi 0.45000 0.36516 0.00000 1.0000
  Bi  Bi 0.43484 0.33484 0.00000 1.0000
  Bi  Bi 0.43484 0.35000 0.00000 1.0000
  Bi  Bi 0.45000 0.33484 0.00000 1.0000
  Bi  Bi 0.46516 0.36516 0.00000 1.0000
  Bi  Bi 0.47994 0.35000 0.00000 1.0000
  Bi  Bi 0.45000 0.37994 0.00000 1.0000
  Bi  Bi 0.42006 0.32006 0.00000 1.0000
  Bi  Bi 0.42006 0.35000 0.00000 1.0000
  Bi  Bi 0.45000 0.32006 0.00000 1.0000
  Bi  Bi 0.47994 0.37994 0.00000 1.0000
  Bi  Bi 0.49292 0.35000 0.00000 1.0000
  Bi  Bi 0.45000 0.39292 0.00000 1.0000
  Bi  Bi 0.40708 0.30708 0.00000 1.0000
  Bi  Bi 0.40708 0.35000 0.00000 1.0000
  Bi  Bi 0.45000 0.30708 0.00000 1.0000
  Bi  Bi 0.49292 0.39292 0.00000 1.0000
  Bi  Bi 0.46516 0.45000 0.00000 1.0000
  Bi  Bi 0.45000 0.46516 0.00000 1.0000
  Bi  Bi 0.43484 0.43484 0.00000 1.0000
  Bi  Bi 0.43484 0.45000 0.00000 1.0000
  Bi  Bi 0.45000 0.43484 0.00000 1.0000
  Bi  Bi 0.46516 0.46516 0.00000 1.0000
  Bi  Bi 0.47994 0.45000 0.00000 1.0000
  Bi  Bi 0.45000 0.47994 0.00000 1.0000
  Bi  Bi 0.42006 0.42006 0.00000 1.0000
  Bi  Bi 0.42006 0.45000 0.00000 1.0000
  Bi  Bi 0.45000 0.42006 0.00000 1.0000
  Bi  Bi 0.47994 0.47994 0.00000 1.0000
  Bi  Bi 0.49292 0.45000 0.00000 1.0000
  Bi  Bi 0.45000 0.49292 0.00000 1.0000
  Bi  Bi 0.40708 0.40708 0.00000 1.0000
  Bi  Bi 0.40708 0.45000 0.00000 1.0000
  Bi  Bi 0.45000 0.40708 0.00000 1.0000
  Bi  Bi 0.49292 0.49292 0.00000 1.0000
  Bi  Bi 0.46516 0.55000 0.00000 1.0000
  Bi  Bi 0.45000 0.56516 0.00000 1.0000
  Bi  Bi 0.43484 0.53484 0.00000 1.0000
  Bi  Bi 0.43484 0.55000 0.00000 1.0000
  Bi  Bi 0.45000 0.53484 0.00000 1.0000
  Bi  Bi 0.46516 0.56516 0.00000 1.0000
  Bi  Bi 0.47994 0.55000 0.00000 1.0000
  Bi  Bi 0.45000 0.57994 0.00000 1.0000
  Bi  Bi 0.42006 0.52006 0.00000 1.0000
  Bi  Bi 0.42006 0.55000 0.00000 1.0000
  Bi  Bi 0.45000 0.52006 0.00000 1.0000
  Bi  Bi 0.47994 0.57994 0.00000 1.0000
  Bi  Bi 0.49292 0.55000 0.00000 1.0000
  Bi  Bi 0.45000 0.59292 0.00000 1.0000
  Bi  Bi 0.40708 0.50708 0.00000 1.0000
  Bi  Bi 0.40708 0.55000 0.00000 1.0000
  Bi  Bi 0.45000 0.50708 0.00000 1.0000
  Bi  Bi 0.49292 0.59292 0.00000 1.0000
  Bi  Bi 0.46516 0.65000 0.00000 1.0000
  Bi  Bi 0.45000 0.66516 0.00000 1.0000
  Bi  Bi 0.43484 0.63484 0.00000 1.0000
  Bi  Bi 0.43484 0.65000 0.00000 1.0000
  Bi  Bi 0.45000 0.63484 0.00000 1.0000
  Bi  Bi 0.46516 0.66516 0.00000 1.0000
  Bi  Bi 0.47994 0.65000 0.00000 1.0000
  Bi  Bi 0.45000 0.67994 0.00000 1.0000
  Bi  Bi 0.42006 0.62006 0.00000 1.0000
  Bi  Bi 0.42006 0.65000 0.00000 1.0000
  Bi  Bi 0.45000 0.62006 0.00000 1.0000
  Bi  Bi 0.47994 0.67994 0.00000 1.0000
  Bi  Bi 0.49292 0.65000 0.00000 1.0000
  Bi  Bi 0.45000 0.69292 0.00000 1.0000
  Bi  Bi 0.40708 0.60708 0.00000 1.0000
  Bi  Bi 0.40708 0.65000 0.00000 1.0000
  Bi  Bi 0.45000 0.60708 0.00000 1.0000
  Bi  Bi 0.49292 0.69292 0.00000 1.0000
  Bi  Bi 0.46516 0.75000 0.00000 1.0000
  Bi  Bi 0.45000 0.76516 0.00000 1.0000
  Bi  Bi 0.43484 0.73484 0.00000 1.0000
  Bi  Bi 0.43484 0.75000 0.00000 1.0000
  Bi  Bi 0.45000 0.73484 0.00000 1.0000
  Bi  Bi 0.46516 0.76516 0.00000 1.0000
  Bi  Bi 0.47994 0.75000 0.00000 1.0000
  Bi  Bi 0.45000 0.77994 0.00000 1.0000
  Bi  Bi 0.42006 0.72006 0.00000 1.0000
  Bi  Bi 0.42006 0.75000 0.00000 1.0000
  Bi  Bi 0.45000 0.72006 0.00000 1.0000
  Bi  Bi 0.47994 0.77994 0.00000 1.0000
  Bi  Bi 0.49292 0.75000 0.00000 1.0000
  Bi  Bi 0.45000 0.79292 0.00000 1.0000
  Bi  Bi 0.40708 0.70708 0.00000 1.0000
  Bi  Bi 0.40708 0.75000 0.00000 1.0000
  Bi  Bi 0.45000 0.70708 0.00000 1.0000
  Bi  Bi 0.49292 0.79292 0.00000 1.0000
  Bi  Bi 0.46516 0.85000 0.00000 1.0000
  Bi  Bi 0.45000 0.86516 0.00000 1.0000
  Bi  Bi 0.43484 0.83484 0.00000 1.0000
  Bi  Bi 0.43484 0.85000 0.00000 1.0000
  Bi  Bi 0.45000 0.83484 0.00000 1.0000
  Bi  Bi 0.46516 0.86516 0.00000 1.0000
  Bi  Bi 0.47994 0.85000 0.00000 1.0000
  Bi  Bi 0.45000 0.87994 0.00000 1.0000
  Bi  Bi 0.42006 0.82006 0.00000 1.0000
  Bi  Bi 0.42006 0.85000 0.00000 1.0000
  Bi  Bi 0.45000 0.82006 0.00000 1.0000
  Bi  Bi 0.47994 0.87994 0.00000 1.0000
  Bi  Bi 0.49292 0.85000 0.00000 1.0000
  Bi  Bi 0.45000 0.89292 0.00000 1.0000
  Bi  Bi 0.40708 0.80708 0.00000 1.0000
  Bi  Bi 0.40708 0.85000 0.00000 1.0000
  Bi  Bi 0.45000 0.80708 0.00000 1.0000
  Bi  Bi 0.49292 0.89292 0.00000 1.0000
  Bi  Bi 0.46516 0.95000 0.00000 1.0000
  Bi  Bi 0.45000 0.96516 0.00000 1.0000
  Bi  Bi 0.43484 0.93484 0.00000 1.0000
  Bi  Bi 0.43484 0.95000 0.00000 1.0000
  Bi  Bi 0.45000 0.93484 0.00000 1.0000
  Bi  Bi 0.46516 0.96516 0.00000 1.0000
  Bi  Bi 0.47994 0.95000 0.00000 1.0000
  Bi  Bi 0.45000 0.97994 0.00000 1.0000
  Bi  Bi 0.42006 0.92006 0.00000 1.0000
  Bi  Bi 0.42006 0.95000 0.00000 1.0000
  Bi  Bi 0.45000 0.92006 0.00000 1.0000
  Bi  Bi 0.47994 0.97994 0.00000 1.0000
  Bi  Bi 0.49292 0.95000 0.00000 1.0000
  Bi  Bi 0.45000 0.99292 0.00000 1.0000
  Bi  Bi 0.40708 0.90708 0.00000 1.0000
  Bi  Bi 0.40708 0.95000 0.00000 1.0000
  Bi  Bi 0.45000 0.90708 0.00000 1.0000
  Bi  Bi 0.49292 0.99292 0.00000 1.0000
  Bi  Bi 0.56516 0.05000 0.00000 1.0000
  Bi  Bi 0.55000 0.06516 0.00000 1.0000
  Bi  Bi 0.53484 0.03484 0.00000 1.0000
  Bi  Bi 0.53484 0.05000 0.00000 1.0000
  Bi  Bi 0.55000 0.03484 0.00000 1.0000
  Bi  Bi 0.56516 0.06516 0.00000 1.0000
  Bi  Bi 0.57994 0.05000 0.00000 1.0000
  Bi  Bi 0.55000 0.07994 0.00000 1.0000
  Bi  Bi 0.52006 0.02006 0.00000 1.0000
  Bi  Bi 0.52006 0.05000 0.00000 1.0000
  Bi  Bi 0.55000 0.02006 0.00000 1.0000
  Bi  Bi 0.57994 0.07994 0.00000 1.0000
  Bi  Bi 0.59292 0.05000 0.00000 1.0000
  Bi  Bi 0.55000 0.09292 0.00000 1.0000
  Bi  Bi 0.50708 0.00708 0.00000 1.0000
  Bi  Bi 0.50708 0.05000 0.00000 1.0000
  Bi  Bi 0.55000 0.00708 0.00000 1.0000
  Bi  Bi 0.59292 0.09292 0.00000 1.0000
  Bi  Bi 0.56516 0.15000 0.00000 1.0000
  Bi  Bi 0.55000 0.16516 0.00000 1.0000
  Bi  Bi 0.53484 0.13484 0.00000 1.0000
  Bi  Bi 0.53484 0.15000 0.00000 1.0000
  Bi  Bi 0.55000 0.13484 0.00000 1.0000
  Bi  Bi 0.56516 0.16516 0.00000 1.0000
  Bi  Bi 0.57994 0.15000 0.00000 1.0000
  Bi  Bi 0.55000 0.17994 0.00000 1.0000
  Bi  Bi 0.52006 0.12006 0.00000 1.0000
  Bi  Bi 0.52006 0.15000 0.00000 1.0000
  Bi  Bi 0.55000 0.12006 0.00000 1.0000
  Bi  Bi 0.57994 0.17994 0.00000 1.0000
  Bi  Bi 0.59292 0.15000 0.00000 1.0000
  Bi  Bi 0.55000 0.19292 0.00000 1.0000
  Bi  Bi 0.50708 0.10708 0.00000 1.0000
  Bi  Bi 0.50708 0.15000 0.00000 1.0000
  Bi  Bi 0.55000 0.10708 0.00000 1.0000
  Bi  Bi 0.59292 0.19292 0.00000 1.0000
  Bi  Bi 0.56516 0.25000 0.00000 1.0000
  Bi  Bi 0.55000 0.26516 0.00000 1.0000
  Bi  Bi 0.53484 0.23484 0.00000 1.0000
  Bi  Bi 0.53484 0.25000 0.00000 1.0000
  Bi  Bi 0.55000 0.23484 0.00000 1.0000
  Bi  Bi 0.56516 0.26516 0.00000 1.0000
  Bi  Bi 0.57994 0.25000 0.00000 1.0000
  Bi  Bi 0.55000 0.27994 0.00000 1.0000
  Bi  Bi 0.52006 0.22006 0.00000 1.0000
  Bi  Bi 0.52006 0.25000 0.00000 1.0000
  Bi  Bi 0.55000 0.22006 0.00000 1.0000
  Bi  Bi 0.57994 0.27994 0.00000 1.0000
  Bi  Bi 0.59292 0.25000 0.00000 1.0000
  Bi  Bi 0.55000 0.29292 0.00000 1.0000
  Bi  Bi 0.50708 0.20708 0.00000 1.0000
  Bi  Bi 0.50708 0.25000 0.00000 1.0000
  Bi  Bi 0.55000 0.20708 0.00000 1.0000
  Bi  Bi 0.59292 0.29292 0.00000 1.0000
  Bi  Bi 0.56516 0.35000 0.00000 1.0000
  Bi  Bi 0.55000 0.36516 0.00000 1.0000
  Bi  Bi 0.53484 0.33484 0.00000 1.0000
  Bi  Bi 0.53484 0.35000 0.00000 1.0000
  Bi  Bi 0.55000 0.33484 0.00000 1.0000
  Bi  Bi 0.56516 0.36516 0.00000 1.0000
  Bi  Bi 0.57994 0.35000 0.00000 1.0000
  Bi  Bi 0.55000 0.37994 0.00000 1.0000
  Bi  Bi 0.52006 0.32006 0.00000 1.0000
  Bi  Bi 0.52006 0.35000 0.00000 1.0000
  Bi  Bi 0.55000 0.32006 0.00000 1.0000
  Bi  Bi 0.57994 0.37994 0.00000 1.0000
  Bi  Bi 0.59292 0.35000 0.00000 1.0000
  Bi  Bi 0.55000 0.39292 0.00000 1.0000
  Bi  Bi 0.50708 0.30708 0.00000 1.0000
  Bi  Bi 0.50708 0.35000 0.00000 1.0000
  Bi  Bi 0.55000 0.30708 0.00000 1.0000
  Bi  Bi 0.59292 0.39292 0.00000 1.0000
  Bi  Bi 0.56516 0.45000 0.00000 1.0000
  Bi  Bi 0.55000 0.46516 0.00000 1.0000
  Bi  Bi 0.53484 0.43484 0.00000 1.0000
  Bi  Bi 0.53484 0.45000 0.00000 1.0000
  Bi  Bi 0.55000 0.43484 0.00000 1.0000
  Bi  Bi 0.56516 0.46516 0.00000 1.0000
  Bi  Bi 0.57994 0.45000 0.00000 1.0000
  Bi  Bi 0.55000 0.47994 0.00000 1.0000
  Bi  Bi 0.52006 0.42006 0.00000 1.0000
  Bi  Bi 0.52006 0.45000 0.00000 1.0000
  Bi  Bi 0.55000 0.42006 0.00000 1.0000
  Bi  Bi 0.57994 0.47994 0.00000 1.0000
  Bi  Bi 0.59292 0.45000 0.00000 1.0000
  Bi  Bi 0.55000 0.49292 0.00000 1.0000
  Bi  Bi 0.50708 0.40708 0.00000 1.0000
  Bi  Bi 0.50708 0.45000 0.00000 1.0000
  Bi  Bi 0.55000 0.40708 0.00000 1.0000
  Bi  Bi 0.59292 0.49292 0.00000 1.0000
  Bi  Bi 0.56516 0.55000 0.00000 1.0000
  Bi  Bi 0.55000 0.56516 0.00000 1.0000
  Bi  Bi 0.53484 0.53484 0.00000 1.0000
  Bi  Bi 0.53484 0.55000 0.00000 1.0000
  Bi  Bi 0.55000 0.53484 0.00000 1.0000
  Bi  Bi 0.56516 0.56516 0.00000 1.0000
  Bi  Bi 0.57994 0.55000 0.00000 1.0000
  Bi  Bi 0.55000 0.57994 0.00000 1.0000
  Bi  Bi 0.52006 0.52006 0.00000 1.0000
  Bi  Bi 0.52006 0.55000 0.00000 1.0000
  Bi  Bi 0.55000 0.52006 0.00000 1.0000
  Bi  Bi 0.57994 0.57994 0.00000 1.0000
  Bi  Bi 0.59292 0.55000 0.00000 1.0000
  Bi  Bi 0.55000 0.59292 0.00000 1.0000
  Bi  Bi 0.50708 0.50708 0.00000 1.0000
  Bi  Bi 0.50708 0.55000 0.00000 1.0000
  Bi  Bi 0.55000 0.50708 0.00000 1.0000
  Bi  Bi 0.59292 0.59292 0.00000 1.0000
  Bi  Bi 0.56516 0.65000 0.00000 1.0000
  Bi  Bi 0.55000 0.66516 0.00000 1.0000
  Bi  Bi 0.53484 0.63484 0.00000 1.0000
  Bi  Bi 0.53484 0.65000 0.00000 1.0000
  Bi  Bi 0.55000 0.63484 0.00000 1.0000
  Bi  Bi 0.56516 0.66516 0.00000 1.0000
  Bi  Bi 0.57994 0.65000 0.00000 1.0000
  Bi  Bi 0.55000 0.67994 0.00000 1.0000
  Bi  Bi 0.52006 0.62006 0.00000 1.0000
  Bi  Bi 0.52006 0.65000 0.00000 1.0000
  Bi  Bi 0.55000 0.62006 0.00000 1.0000
  Bi  Bi 0.57994 0.67994 0.00000 1.0000
  Bi  Bi 0.59292 0.65000 0.00000 1.0000
  Bi  Bi 0.55000 0.69292 0.00000 1.0000
  Bi  Bi 0.50708 0.60708 0.00000 1.0000
  Bi  Bi 0.50708 0.65000 0.00000 1.0000
  Bi  Bi 0.55000 0.60708 0.00000 1.0000
  Bi  Bi 0.59292 0.69292 0.00000 1.0000
  Bi  Bi 0.56516 0.75000 0.00000 1.0000
  Bi  Bi 0.55000 0.76516 0.00000 1.0000
  Bi  Bi 0.53484 0.73484 0.00000 1.0000
  Bi  Bi 0.53484 0.75000 0.00000 1.0000
  Bi  Bi 0.55000 0.73484 0.00000 1.0000
  Bi  Bi 0.56516 0.76516 0.00000 1.0000
  Bi  Bi 0.57994 0.75000 0.00000 1.0000
  Bi  Bi 0.55000 0.77994 0.00000 1.0000
  Bi  Bi 0.52006 0.72006 0.00000 1.0000
  Bi  Bi 0.52006 0.75000 0.00000 1.0000
  Bi  Bi 0.55000 0.72006 0.00000 1.0000
  Bi  Bi 0.57994 0.77994 0.00000 1.0000
  Bi  Bi 0.59292 0.75000 0.00000 1.0000
  Bi  Bi 0.55000 0.79292 0.00000 1.0000
  Bi  Bi 0.50708 0.70708 0.00000 1.0000
  Bi  Bi 0.50708 0.75000 0.00000 1.0000
  Bi  Bi 0.55000 0.70708 0.00000 1.0000
  Bi  Bi 0.59292 0.79292 0.00000 1.0000
  Bi  Bi 0.56516 0.85000 0.00000 1.0000
  Bi  Bi 0.55000 0.86516 0.00000 1.0000
  Bi  Bi 0.53484 0.83484 0.00000 1.0000
  Bi  Bi 0.53484 0.85000 0.00000 1.0000
  Bi  Bi 0.55000 0.83484 0.00000 1.0000
  Bi  Bi 0.56516 0.86516 0.00000 1.0000
  Bi  Bi 0.57994 0.85000 0.00000 1.0000
  Bi  Bi 0.55000 0.87994 0.00000 1.0000
  Bi  Bi 0.52006 0.82006 0.00000 1.0000
  Bi  Bi 0.52006 0.85000 0.00000 1.0000
  Bi  Bi 0.55000 0.82006 0.00000 1.0000
  Bi  Bi 0.57994 0.87994 0.00000 1.0000
  Bi  Bi 0.59292 0.85000 0.00000 1.0000
  Bi  Bi 0.55000 0.89292 0.00000 1.0000
  Bi  Bi 0.50708 0.80708 0.00000 1.0000
  Bi  Bi 0.50708 0.85000 0.00000 1.0000
  Bi  Bi 0.55000 0.80708 0.00000 1.0000
  Bi  Bi 0.59292 0.89292 0.00000 1.0000
  Bi  Bi 0.56516 0.95000 0.00000 1.0000
  Bi  Bi 0.55000 0.96516 0.00000 1.0000
  Bi  Bi 0.53484 0.93484 0.00000 1.0000
  Bi  Bi 0.53484 0.95000 0.00000 1.0000
  Bi  Bi 0.55000 0.93484 0.00000 1.0000
  Bi  Bi 0.56516 0.96516 0.00000 1.0000
  Bi  Bi 0.57994 0.95000 0.00000 1.0000
  Bi  Bi 0.55000 0.97994 0.00000 1.0000
  Bi  Bi 0.52006 0.92006 0.00000 1.0000
  Bi  Bi 0.52006 0.95000 0.00000 1.0000
  Bi  Bi 0.55000 0.92006 0.00000 1.0000
  Bi  Bi 0.57994 0.97994 0.00000 1.0000
  Bi  Bi 0.59292 0.95000 0.00000 1.0000
  Bi  Bi 0.55000 0.99292 0.00000 1.0000
  Bi  Bi 0.50708 0.90708 0.00000 1.0000
  Bi  Bi 0.50708 0.95000 0.00000 1.0000
  Bi  Bi 0.55000 0.90708 0.00000 1.0000
  Bi  Bi 0.59292 0.99292 0.00000 1.0000
  Bi  Bi 0.66516 0.05000 0.00000 1.0000
  Bi  Bi 0.65000 0.06516 0.00000 1.0000
  Bi  Bi 0.63484 0.03484 0.00000 1.0000
  Bi  Bi 0.63484 0.05000 0.00000 1.0000
  Bi  Bi 0.65000 0.03484 0.00000 1.0000
  Bi  Bi 0.66516 0.06516 0.00000 1.0000
  Bi  Bi 0.67994 0.05000 0.00000 1.0000
  Bi  Bi 0.65000 0.07994 0.00000 1.0000
  Bi  Bi 0.62006 0.02006 0.00000 1.0000
  Bi  Bi 0.62006 0.05000 0.00000 1.0000
  Bi  Bi 0.65000 0.02006 0.00000 1.0000
  Bi  Bi 0.67994 0.07994 0.00000 1.0000
  Bi  Bi 0.69292 0.05000 0.00000 1.0000
  Bi  Bi 0.65000 0.09292 0.00000 1.0000
  Bi  Bi 0.60708 0.00708 0.00000 1.0000
  Bi  Bi 0.60708 0.05000 0.00000 1.0000
  Bi  Bi 0.65000 0.00708 0.00000 1.0000
  Bi  Bi 0.69292 0.09292 0.00000 1.0000
  Bi  Bi 0.66516 0.15000 0.00000 1.0000
  Bi  Bi 0.65000 0.16516 0.00000 1.0000
  Bi  Bi 0.63484 0.13484 0.00000 1.0000
  Bi  Bi 0.63484 0.15000 0.00000 1.0000
  Bi  Bi 0.65000 0.13484 0.00000 1.0000
  Bi  Bi 0.66516 0.16516 0.00000 1.0000
  Bi  Bi 0.67994 0.15000 0.00000 1.0000
  Bi  Bi 0.65000 0.17994 0.00000 1.0000
  Bi  Bi 0.62006 0.12006 0.00000 1.0000
  Bi  Bi 0.62006 0.15000 0.00000 1.0000
  Bi  Bi 0.65000 0.12006 0.00000 1.0000
  Bi  Bi 0.67994 0.17994 0.00000 1.0000
  Bi  Bi 0.69292 0.15000 0.00000 1.0000
  Bi  Bi 0.65000 0.19292 0.00000 1.0000
  Bi  Bi 0.60708 0.10708 0.00000 1.0000
  Bi  Bi 0.60708 0.15000 0.00000 1.0000
  Bi  Bi 0.65000 0.10708 0.00000 1.0000
  Bi  Bi 0.69292 0.19292 0.00000 1.0000
  Bi  Bi 0.66516 0.25000 0.00000 1.0000
  Bi  Bi 0.65000 0.26516 0.00000 1.0000
  Bi  Bi 0.63484 0.23484 0.00000 1.0000
  Bi  Bi 0.63484 0.25000 0.00000 1.0000
  Bi  Bi 0.65000 0.23484 0.00000 1.0000
  Bi  Bi 0.66516 0.26516 0.00000 1.0000
  Bi  Bi 0.67994 0.25000 0.00000 1.0000
  Bi  Bi 0.65000 0.27994 0.00000 1.0000
  Bi  Bi 0.62006 0.22006 0.00000 1.0000
  Bi  Bi 0.62006 0.25000 0.00000 1.0000
  Bi  Bi 0.65000 0.22006 0.00000 1.0000
  Bi  Bi 0.67994 0.27994 0.00000 1.0000
  Bi  Bi 0.69292 0.25000 0.00000 1.0000
  Bi  Bi 0.65000 0.29292 0.00000 1.0000
  Bi  Bi 0.60708 0.20708 0.00000 1.0000
  Bi  Bi 0.60708 0.25000 0.00000 1.0000
  Bi  Bi 0.65000 0.20708 0.00000 1.0000
  Bi  Bi 0.69292 0.29292 0.00000 1.0000
  Bi  Bi 0.66516 0.35000 0.00000 1.0000
  Bi  Bi 0.65000 0.36516 0.00000 1.0000
  Bi  Bi 0.63484 0.33484 0.00000 1.0000
  Bi  Bi 0.63484 0.35000 0.00000 1.0000
  Bi  Bi 0.65000 0.33484 0.00000 1.0000
  Bi  Bi 0.66516 0.36516 0.00000 1.0000
  Bi  Bi 0.67994 0.35000 0.00000 1.0000
  Bi  Bi 0.65000 0.37994 0.00000 1.0000
  Bi  Bi 0.62006 0.32006 0.00000 1.0000
  Bi  Bi 0.62006 0.35000 0.00000 1.0000
  Bi  Bi 0.65000 0.32006 0.00000 1.0000
  Bi  Bi 0.67994 0.37994 0.00000 1.0000
  Bi  Bi 0.69292 0.35000 0.00000 1.0000
  Bi  Bi 0.65000 0.39292 0.00000 1.0000
  Bi  Bi 0.60708 0.30708 0.00000 1.0000
  Bi  Bi 0.60708 0.35000 0.00000 1.0000
  Bi  Bi 0.65000 0.30708 0.00000 1.0000
  Bi  Bi 0.69292 0.39292 0.00000 1.0000
  Bi  Bi 0.66516 0.45000 0.00000 1.0000
  Bi  Bi 0.65000 0.46516 0.00000 1.0000
  Bi  Bi 0.63484 0.43484 0.00000 1.0000
  Bi  Bi 0.63484 0.45000 0.00000 1.0000
  Bi  Bi 0.65000 0.43484 0.00000 1.0000
  Bi  Bi 0.66516 0.46516 0.00000 1.0000
  Bi  Bi 0.67994 0.45000 0.00000 1.0000
  Bi  Bi 0.65000 0.47994 0.00000 1.0000
  Bi  Bi 0.62006 0.42006 0.00000 1.0000
  Bi  Bi 0.62006 0.45000 0.00000 1.0000
  Bi  Bi 0.65000 0.42006 0.00000 1.0000
  Bi  Bi 0.67994 0.47994 0.00000 1.0000
  Bi  Bi 0.69292 0.45000 0.00000 1.0000
  Bi  Bi 0.65000 0.49292 0.00000 1.0000
  Bi  Bi 0.60708 0.40708 0.00000 1.0000
  Bi  Bi 0.60708 0.45000 0.00000 1.0000
  Bi  Bi 0.65000 0.40708 0.00000 1.0000
  Bi  Bi 0.69292 0.49292 0.00000 1.0000
  Bi  Bi 0.66516 0.55000 0.00000 1.0000
  Bi  Bi 0.65000 0.56516 0.00000 1.0000
  Bi  Bi 0.63484 0.53484 0.00000 1.0000
  Bi  Bi 0.63484 0.55000 0.00000 1.0000
  Bi  Bi 0.65000 0.53484 0.00000 1.0000
  Bi  Bi 0.66516 0.56516 0.00000 1.0000
  Bi  Bi 0.67994 0.55000 0.00000 1.0000
  Bi  Bi 0.65000 0.57994 0.00000 1.0000
  Bi  Bi 0.62006 0.52006 0.00000 1.0000
  Bi  Bi 0.62006 0.55000 0.00000 1.0000
  Bi  Bi 0.65000 0.52006 0.00000 1.0000
  Bi  Bi 0.67994 0.57994 0.00000 1.0000
  Bi  Bi 0.69292 0.55000 0.00000 1.0000
  Bi  Bi 0.65000 0.59292 0.00000 1.0000
  Bi  Bi 0.60708 0.50708 0.00000 1.0000
  Bi  Bi 0.60708 0.55000 0.00000 1.0000
  Bi  Bi 0.65000 0.50708 0.00000 1.0000
  Bi  Bi 0.69292 0.59292 0.00000 1.0000
  Bi  Bi 0.66516 0.65000 0.00000 1.0000
  Bi  Bi 0.65000 0.66516 0.00000 1.0000
  Bi  Bi 0.63484 0.63484 0.00000 1.0000
  Bi  Bi 0.63484 0.65000 0.00000 1.0000
  Bi  Bi 0.65000 0.63484 0.00000 1.0000
  Bi  Bi 0.66516 0.66516 0.00000 1.0000
  Bi  Bi 0.67994 0.65000 0.00000 1.0000
  Bi  Bi 0.65000 0.67994 0.00000 1.0000
  Bi  Bi 0.62006 0.62006 0.00000 1.0000
  Bi  Bi 0.62006 0.65000 0.00000 1.0000
  Bi  Bi 0.65000 0.62006 0.00000 1.0000
  Bi  Bi 0.67994 0.67994 0.00000 1.0000
  Bi  Bi 0.69292 0.65000 0.00000 1.0000
  Bi  Bi 0.65000 0.69292 0.00000 1.0000
  Bi  Bi 0.60708 0.60708 0.00000 1.0000
  Bi  Bi 0.60708 0.65000 0.00000 1.0000
  Bi  Bi 0.65000 0.60708 0.00000 1.0000
  Bi  Bi 0.69292 0.69292 0.00000 1.0000
  Bi  Bi 0.66516 0.75000 0.00000 1.0000
  Bi  Bi 0.65000 0.76516 0.00000 1.0000
  Bi  Bi 0.63484 0.73484 0.00000 1.0000
  Bi  Bi 0.63484 0.75000 0.00000 1.0000
  Bi  Bi 0.65000 0.73484 0.00000 1.0000
  Bi  Bi 0.66516 0.76516 0.00000 1.0000
  Bi  Bi 0.67994 0.75000 0.00000 1.0000
  Bi  Bi 0.65000 0.77994 0.00000 1.0000
  Bi  Bi 0.62006 0.72006 0.00000 1.0000
  Bi  Bi 0.62006 0.75000 0.00000 1.0000
  Bi  Bi 0.65000 0.72006 0.00000 1.0000
  Bi  Bi 0.67994 0.77994 0.00000 1.0000
  Bi  Bi 0.69292 0.75000 0.00000 1.0000
  Bi  Bi 0.65000 0.79292 0.00000 1.0000
  Bi  Bi 0.60708 0.70708 0.00000 1.0000
  Bi  Bi 0.60708 0.75000 0.00000 1.0000
  Bi  Bi 0.65000 0.70708 0.00000 1.0000
  Bi  Bi 0.69292 0.79292 0.00000 1.0000
  Bi  Bi 0.66516 0.85000 0.00000 1.0000
  Bi  Bi 0.65000 0.86516 0.00000 1.0000
  Bi  Bi 0.63484 0.83484 0.00000 1.0000
  Bi  Bi 0.63484 0.85000 0.00000 1.0000
  Bi  Bi 0.65000 0.83484 0.00000 1.0000
  Bi  Bi 0.66516 0.86516 0.00000 1.0000
  Bi  Bi 0.67994 0.85000 0.00000 1.0000
  Bi  Bi 0.65000 0.87994 0.00000 1.0000
  Bi  Bi 0.62006 0.82006 0.00000 1.0000
  Bi  Bi 0.62006 0.85000 0.00000 1.0000
  Bi  Bi 0.65000 0.82006 0.00000 1.0000
  Bi  Bi 0.67994 0.87994 0.00000 1.0000
  Bi  Bi 0.69292 0.85000 0.00000 1.0000
  Bi  Bi 0.65000 0.89292 0.00000 1.0000
  Bi  Bi 0.60708 0.80708 0.00000 1.0000
  Bi  Bi 0.60708 0.85000 0.00000 1.0000
  Bi  Bi 0.65000 0.80708 0.00000 1.0000
  Bi  Bi 0.69292 0.89292 0.00000 1.0000
  Bi  Bi 0.66516 0.95000 0.00000 1.0000
  Bi  Bi 0.65000 0.96516 0.00000 1.0000
  Bi  Bi 0.63484 0.93484 0.00000 1.0000
  Bi  Bi 0.63484 0.95000 0.00000 1.0000
  Bi  Bi 0.65000 0.93484 0.00000 1.0000
  Bi  Bi 0.66516 0.96516 0.00000 1.0000
  Bi  Bi 0.67994 0.95000 0.00000 1.0000
  Bi  Bi 0.65000 0.97994 0.00000 1.0000
  Bi  Bi 0.62006 0.92006 0.00000 1.0000
  Bi  Bi 0.62006 0.95000 0.00000 1.0000
  Bi  Bi 0.65000 0.92006 0.00000 1.0000
  Bi  Bi 0.67994 0.97994 0.00000 1.0000
  Bi  Bi 0.69292 0.95000 0.00000 1.0000
  Bi  Bi 0.65000 0.99292 0.00000 1.0000
  Bi  Bi 0.60708 0.90708 0.00000 1.0000
  Bi  Bi 0.60708 0.95000 0.00000 1.0000
  Bi  Bi 0.65000 0.90708 0.00000 1.0000
  Bi  Bi 0.69292 0.99292 0.00000 1.0000
  Co  Co 0.76516 0.05000 0.00000 1.0000
  Bi  Bi 0.75000 0.06516 0.00000 1.0000
  Co  Co 0.73484 0.03484 0.00000 1.0000
  Bi  Bi 0.73484 0.05000 0.00000 1.0000
  Co  Co 0.75000 0.03484 0.00000 1.0000
  Bi  Bi 0.76516 0.06516 0.00000 1.0000
  Co  Co 0.77994 0.05000 0.00000 1.0000
  Co  Co 0.75000 0.07994 0.00000 1.0000
  Bi  Bi 0.72006 0.02006 0.00000 1.0000
  Bi  Bi 0.72006 0.05000 0.00000 1.0000
  Bi  Bi 0.75000 0.02006 0.00000 1.0000
  Bi  Bi 0.77994 0.07994 0.00000 1.0000
  Bi  Bi 0.79292 0.05000 0.00000 1.0000
  Bi  Bi 0.75000 0.09292 0.00000 1.0000
  Bi  Bi 0.70708 0.00708 0.00000 1.0000
  Bi  Bi 0.70708 0.05000 0.00000 1.0000
  Bi  Bi 0.75000 0.00708 0.00000 1.0000
  Bi  Bi 0.79292 0.09292 0.00000 1.0000
  Bi  Bi 0.76516 0.15000 0.00000 1.0000
  Bi  Bi 0.75000 0.16516 0.00000 1.0000
  Bi  Bi 0.73484 0.13484 0.00000 1.0000
  Bi  Bi 0.73484 0.15000 0.00000 1.0000
  Bi  Bi 0.75000 0.13484 0.00000 1.0000
  Bi  Bi 0.76516 0.16516 0.00000 1.0000
  Bi  Bi 0.77994 0.15000 0.00000 1.0000
  Bi  Bi 0.75000 0.17994 0.00000 1.0000
  Bi  Bi 0.72006 0.12006 0.00000 1.0000
  Bi  Bi 0.72006 0.15000 0.00000 1.0000
  Bi  Bi 0.75000 0.12006 0.00000 1.0000
  Bi  Bi 0.77994 0.17994 0.00000 1.0000
  Bi  Bi 0.79292 0.15000 0.00000 1.0000
  Bi  Bi 0.75000 0.19292 0.00000 1.0000
  Bi  Bi 0.70708 0.10708 0.00000 1.0000
  Bi  Bi 0.70708 0.15000 0.00000 1.0000
  Bi  Bi 0.75000 0.10708 0.00000 1.0000
  Bi  Bi 0.79292 0.19292 0.00000 1.0000
  Bi  Bi 0.76516 0.25000 0.00000 1.0000
  Bi  Bi 0.75000 0.26516 0.00000 1.0000
  Bi  Bi 0.73484 0.23484 0.00000 1.0000
  Bi  Bi 0.73484 0.25000 0.00000 1.0000
  Bi  Bi 0.75000 0.23484 0.00000 1.0000
  Bi  Bi 0.76516 0.26516 0.00000 1.0000
  Bi  Bi 0.77994 0.25000 0.00000 1.0000
  Bi  Bi 0.75000 0.27994 0.00000 1.0000
  Bi  Bi 0.72006 0.22006 0.00000 1.0000
  Bi  Bi 0.72006 0.25000 0.00000 1.0000
  Bi  Bi 0.75000 0.22006 0.00000 1.0000
  Bi  Bi 0.77994 0.27994 0.00000 1.0000
  Bi  Bi 0.79292 0.25000 0.00000 1.0000
  Bi  Bi 0.75000 0.29292 0.00000 1.0000
  Bi  Bi 0.70708 0.20708 0.00000 1.0000
  Bi  Bi 0.70708 0.25000 0.00000 1.0000
  Bi  Bi 0.75000 0.20708 0.00000 1.0000
  Bi  Bi 0.79292 0.29292 0.00000 1.0000
  Bi  Bi 0.76516 0.35000 0.00000 1.0000
  Bi  Bi 0.75000 0.36516 0.00000 1.0000
  Bi  Bi 0.73484 0.33484 0.00000 1.0000
  Bi  Bi 0.73484 0.35000 0.00000 1.0000
  Bi  Bi 0.75000 0.33484 0.00000 1.0000
  Bi  Bi 0.76516 0.36516 0.00000 1.0000
  Bi  Bi 0.77994 0.35000 0.00000 1.0000
  Bi  Bi 0.75000 0.37994 0.00000 1.0000
  Bi  Bi 0.72006 0.32006 0.00000 1.0000
  Bi  Bi 0.72006 0.35000 0.00000 1.0000
  Bi  Bi 0.75000 0.32006 0.00000 1.0000
  Bi  Bi 0.77994 0.37994 0.00000 1.0000
  Bi  Bi 0.79292 0.35000 0.00000 1.0000
  Bi  Bi 0.75000 0.39292 0.00000 1.0000
  Bi  Bi 0.70708 0.30708 0.00000 1.0000
  Bi  Bi 0.70708 0.35000 0.00000 1.0000
  Bi  Bi 0.75000 0.30708 0.00000 1.0000
  Bi  Bi 0.79292 0.39292 0.00000 1.0000
  Bi  Bi 0.76516 0.45000 0.00000 1.0000
  Bi  Bi 0.75000 0.46516 0.00000 1.0000
  Bi  Bi 0.73484 0.43484 0.00000 1.0000
  Bi  Bi 0.73484 0.45000 0.00000 1.0000
  Bi  Bi 0.75000 0.43484 0.00000 1.0000
  Bi  Bi 0.76516 0.46516 0.00000 1.0000
  Bi  Bi 0.77994 0.45000 0.00000 1.0000
  Bi  Bi 0.75000 0.47994 0.00000 1.0000
  Bi  Bi 0.72006 0.42006 0.00000 1.0000
  Bi  Bi 0.72006 0.45000 0.00000 1.0000
  Bi  Bi 0.75000 0.42006 0.00000 1.0000
  Bi  Bi 0.77994 0.47994 0.00000 1.0000
  Bi  Bi 0.79292 0.45000 0.00000 1.0000
  Bi  Bi 0.75000 0.49292 0.00000 1.0000
  Bi  Bi 0.70708 0.40708 0.00000 1.0000
  Bi  Bi 0.70708 0.45000 0.00000 1.0000
  Bi  Bi 0.75000 0.40708 0.00000 1.0000
  Bi  Bi 0.79292 0.49292 0.00000 1.0000
  Bi  Bi 0.76516 0.55000 0.00000 1.0000
  Bi  Bi 0.75000 0.56516 0.00000 1.0000
  Bi  Bi 0.73484 0.53484 0.00000 1.0000
  Bi  Bi 0.73484 0.55000 0.00000 1.0000
  Bi  Bi 0.75000 0.53484 0.00000 1.0000
  Bi  Bi 0.76516 0.56516 0.00000 1.0000
  Bi  Bi 0.77994 0.55000 0.00000 1.0000
  Bi  Bi 0.75000 0.57994 0.00000 1.0000
  Bi  Bi 0.72006 0.52006 0.00000 1.0000
  Bi  Bi 0.72006 0.55000 0.00000 1.0000
  Bi  Bi 0.75000 0.52006 0.00000 1.0000
  Bi  Bi 0.77994 0.57994 0.00000 1.0000
  Bi  Bi 0.79292 0.55000 0.00000 1.0000
  Bi  Bi 0.75000 0.59292 0.00000 1.0000
  Bi  Bi 0.70708 0.50708 0.00000 1.0000
  Bi  Bi 0.70708 0.55000 0.00000 1.0000
  Bi  Bi 0.75000 0.50708 0.00000 1.0000
  Bi  Bi 0.79292 0.59292 0.00000 1.0000
  Bi  Bi 0.76516 0.65000 0.00000 1.0000
  Bi  Bi 0.75000 0.66516 0.00000 1.0000
  Bi  Bi 0.73484 0.63484 0.00000 1.0000
  Bi  Bi 0.73484 0.65000 0.00000 1.0000
  Bi  Bi 0.75000 0.63484 0.00000 1.0000
  Bi  Bi 0.76516 0.66516 0.00000 1.0000
  Bi  Bi 0.77994 0.65000 0.00000 1.0000
  Bi  Bi 0.75000 0.67994 0.00000 1.0000
  Bi  Bi 0.72006 0.62006 0.00000 1.0000
  Bi  Bi 0.72006 0.65000 0.00000 1.0000
  Bi  Bi 0.75000 0.62006 0.00000 1.0000
  Bi  Bi 0.77994 0.67994 0.00000 1.0000
  Bi  Bi 0.79292 0.65000 0.00000 1.0000
  Bi  Bi 0.75000 0.69292 0.00000 1.0000
  Bi  Bi 0.70708 0.60708 0.00000 1.0000
  Bi  Bi 0.70708 0.65000 0.00000 1.0000
  Bi  Bi 0.75000 0.60708 0.00000 1.0000
  Bi  Bi 0.79292 0.69292 0.00000 1.0000
  Bi  Bi 0.76516 0.75000 0.00000 1.0000
  Bi  Bi 0.75000 0.76516 0.00000 1.0000
  Bi  Bi 0.73484 0.73484 0.00000 1.0000
  Bi  Bi 0.73484 0.75000 0.00000 1.0000
  Bi  Bi 0.75000 0.73484 0.00000 1.0000
  Bi  Bi 0.76516 0.76516 0.00000 1.0000
  Bi  Bi 0.77994 0.75000 0.00000 1.0000
  Bi  Bi 0.75000 0.77994 0.00000 1.0000
  Bi  Bi 0.72006 0.72006 0.00000 1.0000
  Bi  Bi 0.72006 0.75000 0.00000 1.0000
  Bi  Bi 0.75000 0.72006 0.00000 1.0000
  Bi  Bi 0.77994 0.77994 0.00000 1.0000
  Bi  Bi 0.79292 0.75000 0.00000 1.0000
  Bi  Bi 0.75000 0.79292 0.00000 1.0000
  Bi  Bi 0.70708 0.70708 0.00000 1.0000
  Bi  Bi 0.70708 0.75000 0.00000 1.0000
  Bi  Bi 0.75000 0.70708 0.00000 1.0000
  Bi  Bi 0.79292 0.79292 0.00000 1.0000
  Bi  Bi 0.76516 0.85000 0.00000 1.0000
  Bi  Bi 0.75000 0.86516 0.00000 1.0000
  Bi  Bi 0.73484 0.83484 0.00000 1.0000
  Bi  Bi 0.73484 0.85000 0.00000 1.0000
  Bi  Bi 0.75000 0.83484 0.00000 1.0000
  Bi  Bi 0.76516 0.86516 0.00000 1.0000
  Bi  Bi 0.77994 0.85000 0.00000 1.0000
  Bi  Bi 0.75000 0.87994 0.00000 1.0000
  Bi  Bi 0.72006 0.82006 0.00000 1.0000
  Bi  Bi 0.72006 0.85000 0.00000 1.0000
  Bi  Bi 0.75000 0.82006 0.00000 1.0000
  Bi  Bi 0.77994 0.87994 0.00000 1.0000
  Bi  Bi 0.79292 0.85000 0.00000 1.0000
  Bi  Bi 0.75000 0.89292 0.00000 1.0000
  Bi  Bi 0.70708 0.80708 0.00000 1.0000
  Bi  Bi 0.70708 0.85000 0.00000 1.0000
  Bi  Bi 0.75000 0.80708 0.00000 1.0000
  Bi  Bi 0.79292 0.89292 0.00000 1.0000
  Bi  Bi 0.76516 0.95000 0.00000 1.0000
  Bi  Bi 0.75000 0.96516 0.00000 1.0000
  Bi  Bi 0.73484 0.93484 0.00000 1.0000
  Bi  Bi 0.73484 0.95000 0.00000 1.0000
  Bi  Bi 0.75000 0.93484 0.00000 1.0000
  Bi  Bi 0.76516 0.96516 0.00000 1.0000
  Bi  Bi 0.77994 0.95000 0.00000 1.0000
  Bi  Bi 0.75000 0.97994 0.00000 1.0000
  Bi  Bi 0.72006 0.92006 0.00000 1.0000
  Bi  Bi 0.72006 0.95000 0.00000 1.0000
  Bi  Bi 0.75000 0.92006 0.00000 1.0000
  Bi  Bi 0.77994 0.97994 0.00000 1.0000
  Bi  Bi 0.79292 0.95000 0.00000 1.0000
  Bi  Bi 0.75000 0.99292 0.00000 1.0000
  Bi  Bi 0.70708 0.90708 0.00000 1.0000
  Bi  Bi 0.70708 0.95000 0.00000 1.0000
  Bi  Bi 0.75000 0.90708 0.00000 1.0000
  Bi  Bi 0.79292 0.99292 0.00000 1.0000
  Co  Co 0.86516 0.05000 0.00000 1.0000
  Bi  Bi 0.85000 0.06516 0.00000 1.0000
  Co  Co 0.83484 0.03484 0.00000 1.0000
  Co  Co 0.83484 0.05000 0.00000 1.0000
  Co  Co 0.85000 0.03484 0.00000 1.0000
  Co  Co 0.86516 0.06516 0.00000 1.0000
  Co  Co 0.87994 0.05000 0.00000 1.0000
  Co  Co 0.85000 0.07994 0.00000 1.0000
  Co  Co 0.82006 0.02006 0.00000 1.0000
  Bi  Bi 0.82006 0.05000 0.00000 1.0000
  Co  Co 0.85000 0.02006 0.00000 1.0000
  Co  Co 0.87994 0.07994 0.00000 1.0000
  Co  Co 0.89292 0.05000 0.00000 1.0000
  Bi  Bi 0.85000 0.09292 0.00000 1.0000
  Co  Co 0.80708 0.00708 0.00000 1.0000
  Bi  Bi 0.80708 0.05000 0.00000 1.0000
  Bi  Bi 0.85000 0.00708 0.00000 1.0000
  Co  Co 0.89292 0.09292 0.00000 1.0000
  Co  Co 0.86516 0.15000 0.00000 1.0000
  Bi  Bi 0.85000 0.16516 0.00000 1.0000
  Bi  Bi 0.83484 0.13484 0.00000 1.0000
  Bi  Bi 0.83484 0.15000 0.00000 1.0000
  Co  Co 0.85000 0.13484 0.00000 1.0000
  Bi  Bi 0.86516 0.16516 0.00000 1.0000
  Co  Co 0.87994 0.15000 0.00000 1.0000
  Bi  Bi 0.85000 0.17994 0.00000 1.0000
  Bi  Bi 0.82006 0.12006 0.00000 1.0000
  Bi  Bi 0.82006 0.15000 0.00000 1.0000
  Co  Co 0.85000 0.12006 0.00000 1.0000
  Bi  Bi 0.87994 0.17994 0.00000 1.0000
  Bi  Bi 0.89292 0.15000 0.00000 1.0000
  Bi  Bi 0.85000 0.19292 0.00000 1.0000
  Bi  Bi 0.80708 0.10708 0.00000 1.0000
  Bi  Bi 0.80708 0.15000 0.00000 1.0000
  Bi  Bi 0.85000 0.10708 0.00000 1.0000
  Bi  Bi 0.89292 0.19292 0.00000 1.0000
  Bi  Bi 0.86516 0.25000 0.00000 1.0000
  Bi  Bi 0.85000 0.26516 0.00000 1.0000
  Bi  Bi 0.83484 0.23484 0.00000 1.0000
  Bi  Bi 0.83484 0.25000 0.00000 1.0000
  Bi  Bi 0.85000 0.23484 0.00000 1.0000
  Bi  Bi 0.86516 0.26516 0.00000 1.0000
  Bi  Bi 0.87994 0.25000 0.00000 1.0000
  Bi  Bi 0.85000 0.27994 0.00000 1.0000
  Bi  Bi 0.82006 0.22006 0.00000 1.0000
  Bi  Bi 0.82006 0.25000 0.00000 1.0000
  Bi  Bi 0.85000 0.22006 0.00000 1.0000
  Bi  Bi 0.87994 0.27994 0.00000 1.0000
  Bi  Bi 0.89292 0.25000 0.00000 1.0000
  Bi  Bi 0.85000 0.29292 0.00000 1.0000
  Bi  Bi 0.80708 0.20708 0.00000 1.0000
  Bi  Bi 0.80708 0.25000 0.00000 1.0000
  Bi  Bi 0.85000 0.20708 0.00000 1.0000
  Bi  Bi 0.89292 0.29292 0.00000 1.0000
  Bi  Bi 0.86516 0.35000 0.00000 1.0000
  Bi  Bi 0.85000 0.36516 0.00000 1.0000
  Bi  Bi 0.83484 0.33484 0.00000 1.0000
  Bi  Bi 0.83484 0.35000 0.00000 1.0000
  Bi  Bi 0.85000 0.33484 0.00000 1.0000
  Bi  Bi 0.86516 0.36516 0.00000 1.0000
  Bi  Bi 0.87994 0.35000 0.00000 1.0000
  Bi  Bi 0.85000 0.37994 0.00000 1.0000
  Bi  Bi 0.82006 0.32006 0.00000 1.0000
  Bi  Bi 0.82006 0.35000 0.00000 1.0000
  Bi  Bi 0.85000 0.32006 0.00000 1.0000
  Bi  Bi 0.87994 0.37994 0.00000 1.0000
  Bi  Bi 0.89292 0.35000 0.00000 1.0000
  Bi  Bi 0.85000 0.39292 0.00000 1.0000
  Bi  Bi 0.80708 0.30708 0.00000 1.0000
  Bi  Bi 0.80708 0.35000 0.00000 1.0000
  Bi  Bi 0.85000 0.30708 0.00000 1.0000
  Bi  Bi 0.89292 0.39292 0.00000 1.0000
  Bi  Bi 0.86516 0.45000 0.00000 1.0000
  Bi  Bi 0.85000 0.46516 0.00000 1.0000
  Bi  Bi 0.83484 0.43484 0.00000 1.0000
  Bi  Bi 0.83484 0.45000 0.00000 1.0000
  Bi  Bi 0.85000 0.43484 0.00000 1.0000
  Bi  Bi 0.86516 0.46516 0.00000 1.0000
  Bi  Bi 0.87994 0.45000 0.00000 1.0000
  Bi  Bi 0.85000 0.47994 0.00000 1.0000
  Bi  Bi 0.82006 0.42006 0.00000 1.0000
  Bi  Bi 0.82006 0.45000 0.00000 1.0000
  Bi  Bi 0.85000 0.42006 0.00000 1.0000
  Bi  Bi 0.87994 0.47994 0.00000 1.0000
  Bi  Bi 0.89292 0.45000 0.00000 1.0000
  Bi  Bi 0.85000 0.49292 0.00000 1.0000
  Bi  Bi 0.80708 0.40708 0.00000 1.0000
  Bi  Bi 0.80708 0.45000 0.00000 1.0000
  Bi  Bi 0.85000 0.40708 0.00000 1.0000
  Bi  Bi 0.89292 0.49292 0.00000 1.0000
  Bi  Bi 0.86516 0.55000 0.00000 1.0000
  Bi  Bi 0.85000 0.56516 0.00000 1.0000
  Bi  Bi 0.83484 0.53484 0.00000 1.0000
  Bi  Bi 0.83484 0.55000 0.00000 1.0000
  Bi  Bi 0.85000 0.53484 0.00000 1.0000
  Bi  Bi 0.86516 0.56516 0.00000 1.0000
  Bi  Bi 0.87994 0.55000 0.00000 1.0000
  Bi  Bi 0.85000 0.57994 0.00000 1.0000
  Bi  Bi 0.82006 0.52006 0.00000 1.0000
  Bi  Bi 0.82006 0.55000 0.00000 1.0000
  Bi  Bi 0.85000 0.52006 0.00000 1.0000
  Bi  Bi 0.87994 0.57994 0.00000 1.0000
  Bi  Bi 0.89292 0.55000 0.00000 1.0000
  Bi  Bi 0.85000 0.59292 0.00000 1.0000
  Bi  Bi 0.80708 0.50708 0.00000 1.0000
  Bi  Bi 0.80708 0.55000 0.00000 1.0000
  Bi  Bi 0.85000 0.50708 0.00000 1.0000
  Bi  Bi 0.89292 0.59292 0.00000 1.0000
  Bi  Bi 0.86516 0.65000 0.00000 1.0000
  Bi  Bi 0.85000 0.66516 0.00000 1.0000
  Bi  Bi 0.83484 0.63484 0.00000 1.0000
  Bi  Bi 0.83484 0.65000 0.00000 1.0000
  Bi  Bi 0.85000 0.63484 0.00000 1.0000
  Bi  Bi 0.86516 0.66516 0.00000 1.0000
  Bi  Bi 0.87994 0.65000 0.00000 1.0000
  Bi  Bi 0.85000 0.67994 0.00000 1.0000
  Bi  Bi 0.82006 0.62006 0.00000 1.0000
  Bi  Bi 0.82006 0.65000 0.00000 1.0000
  Bi  Bi 0.85000 0.62006 0.00000 1.0000
  Bi  Bi 0.87994 0.67994 0.00000 1.0000
  Bi  Bi 0.89292 0.65000 0.00000 1.0000
  Bi  Bi 0.85000 0.69292 0.00000 1.0000
  Bi  Bi 0.80708 0.60708 0.00000 1.0000
  Bi  Bi 0.80708 0.65000 0.00000 1.0000
  Bi  Bi 0.85000 0.60708 0.00000 1.0000
  Bi  Bi 0.89292 0.69292 0.00000 1.0000
  Bi  Bi 0.86516 0.75000 0.00000 1.0000
  Bi  Bi 0.85000 0.76516 0.00000 1.0000
  Bi  Bi 0.83484 0.73484 0.00000 1.0000
  Bi  Bi 0.83484 0.75000 0.00000 1.0000
  Bi  Bi 0.85000 0.73484 0.00000 1.0000
  Bi  Bi 0.86516 0.76516 0.00000 1.0000
  Bi  Bi 0.87994 0.75000 0.00000 1.0000
  Bi  Bi 0.85000 0.77994 0.00000 1.0000
  Bi  Bi 0.82006 0.72006 0.00000 1.0000
  Bi  Bi 0.82006 0.75000 0.00000 1.0000
  Bi  Bi 0.85000 0.72006 0.00000 1.0000
  Bi  Bi 0.87994 0.77994 0.00000 1.0000
  Bi  Bi 0.89292 0.75000 0.00000 1.0000
  Bi  Bi 0.85000 0.79292 0.00000 1.0000
  Bi  Bi 0.80708 0.70708 0.00000 1.0000
  Bi  Bi 0.80708 0.75000 0.00000 1.0000
  Bi  Bi 0.85000 0.70708 0.00000 1.0000
  Bi  Bi 0.89292 0.79292 0.00000 1.0000
  Bi  Bi 0.86516 0.85000 0.00000 1.0000
  Bi  Bi 0.85000 0.86516 0.00000 1.0000
  Bi  Bi 0.83484 0.83484 0.00000 1.0000
  Bi  Bi 0.83484 0.85000 0.00000 1.0000
  Bi  Bi 0.85000 0.83484 0.00000 1.0000
  Bi  Bi 0.86516 0.86516 0.00000 1.0000
  Bi  Bi 0.87994 0.85000 0.00000 1.0000
  Bi  Bi 0.85000 0.87994 0.00000 1.0000
  Bi  Bi 0.82006 0.82006 0.00000 1.0000
  Bi  Bi 0.82006 0.85000 0.00000 1.0000
  Bi  Bi 0.85000 0.82006 0.00000 1.0000
  Bi  Bi 0.87994 0.87994 0.00000 1.0000
  Bi  Bi 0.89292 0.85000 0.00000 1.0000
  Bi  Bi 0.85000 0.89292 0.00000 1.0000
  Bi  Bi 0.80708 0.80708 0.00000 1.0000
  Bi  Bi 0.80708 0.85000 0.00000 1.0000
  Bi  Bi 0.85000 0.80708 0.00000 1.0000
  Bi  Bi 0.89292 0.89292 0.00000 1.0000
  Bi  Bi 0.86516 0.95000 0.00000 1.0000
  Bi  Bi 0.85000 0.96516 0.00000 1.0000
  Bi  Bi 0.83484 0.93484 0.00000 1.0000
  Bi  Bi 0.83484 0.95000 0.00000 1.0000
  Bi  Bi 0.85000 0.93484 0.00000 1.0000
  Bi  Bi 0.86516 0.96516 0.00000 1.0000
  Bi  Bi 0.87994 0.95000 0.00000 1.0000
  Bi  Bi 0.85000 0.97994 0.00000 1.0000
  Bi  Bi 0.82006 0.92006 0.00000 1.0000
  Bi  Bi 0.82006 0.95000 0.00000 1.0000
  Bi  Bi 0.85000 0.92006 0.00000 1.0000
  Bi  Bi 0.87994 0.97994 0.00000 1.0000
  Bi  Bi 0.89292 0.95000 0.00000 1.0000
  Bi  Bi 0.85000 0.99292 0.00000 1.0000
  Bi  Bi 0.80708 0.90708 0.00000 1.0000
  Bi  Bi 0.80708 0.95000 0.00000 1.0000
  Bi  Bi 0.85000 0.90708 0.00000 1.0000
  Bi  Bi 0.89292 0.99292 0.00000 1.0000
  Dy  Dy 0.96516 0.05000 0.00000 1.0000
  Co  Co 0.95000 0.06516 0.00000 1.0000
  Dy  Dy 0.93484 0.03484 0.00000 1.0000
  Co  Co 0.93484 0.05000 0.00000 1.0000
  Dy  Dy 0.95000 0.03484 0.00000 1.0000
  Dy  Dy 0.96516 0.06516 0.00000 1.0000
  Dy  Dy 0.97994 0.05000 0.00000 1.0000
  Dy  Dy 0.95000 0.07994 0.00000 1.0000
  Co  Co 0.92006 0.02006 0.00000 1.0000
  Dy  Dy 0.92006 0.05000 0.00000 1.0000
  Dy  Dy 0.95000 0.02006 0.00000 1.0000
  Co  Co 0.97994 0.07994 0.00000 1.0000
  Co  Co 0.99292 0.05000 0.00000 1.0000
  Co  Co 0.95000 0.09292 0.00000 1.0000
  Co  Co 0.90708 0.00708 0.00000 1.0000
  Co  Co 0.90708 0.05000 0.00000 1.0000
  Co  Co 0.95000 0.00708 0.00000 1.0000
  Co  Co 0.99292 0.09292 0.00000 1.0000
  Co  Co 0.96516 0.15000 0.00000 1.0000
  Co  Co 0.95000 0.16516 0.00000 1.0000
  Co  Co 0.93484 0.13484 0.00000 1.0000
  Bi  Bi 0.93484 0.15000 0.00000 1.0000
  Co  Co 0.95000 0.13484 0.00000 1.0000
  Co  Co 0.96516 0.16516 0.00000 1.0000
  Co  Co 0.97994 0.15000 0.00000 1.0000
  Bi  Bi 0.95000 0.17994 0.00000 1.0000
  Co  Co 0.92006 0.12006 0.00000 1.0000
  Co  Co 0.92006 0.15000 0.00000 1.0000
  Co  Co 0.95000 0.12006 0.00000 1.0000
  Co  Co 0.97994 0.17994 0.00000 1.0000
  Bi  Bi 0.99292 0.15000 0.00000 1.0000
  Bi  Bi 0.95000 0.19292 0.00000 1.0000
  Co  Co 0.90708 0.10708 0.00000 1.0000
  Bi  Bi 0.90708 0.15000 0.00000 1.0000
  Co  Co 0.95000 0.10708 0.00000 1.0000
  Co  Co 0.99292 0.19292 0.00000 1.0000
  Co  Co 0.96516 0.25000 0.00000 1.0000
  Bi  Bi 0.95000 0.26516 0.00000 1.0000
  Bi  Bi 0.93484 0.23484 0.00000 1.0000
  Bi  Bi 0.93484 0.25000 0.00000 1.0000
  Co  Co 0.95000 0.23484 0.00000 1.0000
  Co  Co 0.96516 0.26516 0.00000 1.0000
  Bi  Bi 0.97994 0.25000 0.00000 1.0000
  Bi  Bi 0.95000 0.27994 0.00000 1.0000
  Bi  Bi 0.92006 0.22006 0.00000 1.0000
  Co  Co 0.92006 0.25000 0.00000 1.0000
  Co  Co 0.95000 0.22006 0.00000 1.0000
  Bi  Bi 0.97994 0.27994 0.00000 1.0000
  Bi  Bi 0.99292 0.25000 0.00000 1.0000
  Bi  Bi 0.95000 0.29292 0.00000 1.0000
  Bi  Bi 0.90708 0.20708 0.00000 1.0000
  Bi  Bi 0.90708 0.25000 0.00000 1.0000
  Bi  Bi 0.95000 0.20708 0.00000 1.0000
  Bi  Bi 0.99292 0.29292 0.00000 1.0000
  Bi  Bi 0.96516 0.35000 0.00000 1.0000
  Bi  Bi 0.95000 0.36516 0.00000 1.0000
  Bi  Bi 0.93484 0.33484 0.00000 1.0000
  Bi  Bi 0.93484 0.35000 0.00000 1.0000
  Bi  Bi 0.95000 0.33484 0.00000 1.0000
  Bi  Bi 0.96516 0.36516 0.00000 1.0000
  Bi  Bi 0.97994 0.35000 0.00000 1.0000
  Bi  Bi 0.95000 0.37994 0.00000 1.0000
  Bi  Bi 0.92006 0.32006 0.00000 1.0000
  Bi  Bi 0.92006 0.35000 0.00000 1.0000
  Bi  Bi 0.95000 0.32006 0.00000 1.0000
  Bi  Bi 0.97994 0.37994 0.00000 1.0000
  Bi  Bi 0.99292 0.35000 0.00000 1.0000
  Bi  Bi 0.95000 0.39292 0.00000 1.0000
  Bi  Bi 0.90708 0.30708 0.00000 1.0000
  Bi  Bi 0.90708 0.35000 0.00000 1.0000
  Bi  Bi 0.95000 0.30708 0.00000 1.0000
  Bi  Bi 0.99292 0.39292 0.00000 1.0000
  Bi  Bi 0.96516 0.45000 0.00000 1.0000
  Bi  Bi 0.95000 0.46516 0.00000 1.0000
  Bi  Bi 0.93484 0.43484 0.00000 1.0000
  Bi  Bi 0.93484 0.45000 0.00000 1.0000
  Bi  Bi 0.95000 0.43484 0.00000 1.0000
  Bi  Bi 0.96516 0.46516 0.00000 1.0000
  Bi  Bi 0.97994 0.45000 0.00000 1.0000
  Bi  Bi 0.95000 0.47994 0.00000 1.0000
  Bi  Bi 0.92006 0.42006 0.00000 1.0000
  Bi  Bi 0.92006 0.45000 0.00000 1.0000
  Bi  Bi 0.95000 0.42006 0.00000 1.0000
  Bi  Bi 0.97994 0.47994 0.00000 1.0000
  Bi  Bi 0.99292 0.45000 0.00000 1.0000
  Bi  Bi 0.95000 0.49292 0.00000 1.0000
  Bi  Bi 0.90708 0.40708 0.00000 1.0000
  Bi  Bi 0.90708 0.45000 0.00000 1.0000
  Bi  Bi 0.95000 0.40708 0.00000 1.0000
  Bi  Bi 0.99292 0.49292 0.00000 1.0000
  Bi  Bi 0.96516 0.55000 0.00000 1.0000
  Bi  Bi 0.95000 0.56516 0.00000 1.0000
  Bi  Bi 0.93484 0.53484 0.00000 1.0000
  Bi  Bi 0.93484 0.55000 0.00000 1.0000
  Bi  Bi 0.95000 0.53484 0.00000 1.0000
  Bi  Bi 0.96516 0.56516 0.00000 1.0000
  Bi  Bi 0.97994 0.55000 0.00000 1.0000
  Bi  Bi 0.95000 0.57994 0.00000 1.0000
  Bi  Bi 0.92006 0.52006 0.00000 1.0000
  Bi  Bi 0.92006 0.55000 0.00000 1.0000
  Bi  Bi 0.95000 0.52006 0.00000 1.0000
  Bi  Bi 0.97994 0.57994 0.00000 1.0000
  Bi  Bi 0.99292 0.55000 0.00000 1.0000
  Bi  Bi 0.95000 0.59292 0.00000 1.0000
  Bi  Bi 0.90708 0.50708 0.00000 1.0000
  Bi  Bi 0.90708 0.55000 0.00000 1.0000
  Bi  Bi 0.95000 0.50708 0.00000 1.0000
  Bi  Bi 0.99292 0.59292 0.00000 1.0000
  Bi  Bi 0.96516 0.65000 0.00000 1.0000
  Bi  Bi 0.95000 0.66516 0.00000 1.0000
  Bi  Bi 0.93484 0.63484 0.00000 1.0000
  Bi  Bi 0.93484 0.65000 0.00000 1.0000
  Bi  Bi 0.95000 0.63484 0.00000 1.0000
  Bi  Bi 0.96516 0.66516 0.00000 1.0000
  Bi  Bi 0.97994 0.65000 0.00000 1.0000
  Bi  Bi 0.95000 0.67994 0.00000 1.0000
  Bi  Bi 0.92006 0.62006 0.00000 1.0000
  Bi  Bi 0.92006 0.65000 0.00000 1.0000
  Bi  Bi 0.95000 0.62006 0.00000 1.0000
  Bi  Bi 0.97994 0.67994 0.00000 1.0000
  Bi  Bi 0.99292 0.65000 0.00000 1.0000
  Bi  Bi 0.95000 0.69292 0.00000 1.0000
  Bi  Bi 0.90708 0.60708 0.00000 1.0000
  Bi  Bi 0.90708 0.65000 0.00000 1.0000
  Bi  Bi 0.95000 0.60708 0.00000 1.0000
  Bi  Bi 0.99292 0.69292 0.00000 1.0000
  Bi  Bi 0.96516 0.75000 0.00000 1.0000
  Bi  Bi 0.95000 0.76516 0.00000 1.0000
  Bi  Bi 0.93484 0.73484 0.00000 1.0000
  Bi  Bi 0.93484 0.75000 0.00000 1.0000
  Bi  Bi 0.95000 0.73484 0.00000 1.0000
  Bi  Bi 0.96516 0.76516 0.00000 1.0000
  Bi  Bi 0.97994 0.75000 0.00000 1.0000
  Bi  Bi 0.95000 0.77994 0.00000 1.0000
  Bi  Bi 0.92006 0.72006 0.00000 1.0000
  Bi  Bi 0.92006 0.75000 0.00000 1.0000
  Bi  Bi 0.95000 0.72006 0.00000 1.0000
  Bi  Bi 0.97994 0.77994 0.00000 1.0000
  Bi  Bi 0.99292 0.75000 0.00000 1.0000
  Bi  Bi 0.95000 0.79292 0.00000 1.0000
  Bi  Bi 0.90708 0.70708 0.00000 1.0000
  Bi  Bi 0.90708 0.75000 0.00000 1.0000
  Bi  Bi 0.95000 0.70708 0.00000 1.0000
  Bi  Bi 0.99292 0.79292 0.00000 1.0000
  Bi  Bi 0.96516 0.85000 0.00000 1.0000
  Bi  Bi 0.95000 0.86516 0.00000 1.0000
  Bi  Bi 0.93484 0.83484 0.00000 1.0000
  Bi  Bi 0.93484 0.85000 0.00000 1.0000
  Bi  Bi 0.95000 0.83484 0.00000 1.0000
  Bi  Bi 0.96516 0.86516 0.00000 1.0000
  Bi  Bi 0.97994 0.85000 0.00000 1.0000
  Bi  Bi 0.95000 0.87994 0.00000 1.0000
  Bi  Bi 0.92006 0.82006 0.00000 1.0000
  Bi  Bi 0.92006 0.85000 0.00000 1.0000
  Bi  Bi 0.95000 0.82006 0.00000 1.0000
  Bi  Bi 0.97994 0.87994 0.00000 1.0000
  Bi  Bi 0.99292 0.85000 0.00000 1.0000
  Bi  Bi 0.95000 0.89292 0.00000 1.0000
  Bi  Bi 0.90708 0.80708 0.00000 1.0000
  Bi  Bi 0.90708 0.85000 0.00000 1.0000
  Bi  Bi 0.95000 0.80708 0.00000 1.0000
  Bi  Bi 0.99292 0.89292 0.00000 1.0000
  Bi  Bi 0.96516 0.95000 0.00000 1.0000
  Bi  Bi 0.95000 0.96516 0.00000 1.0000
  Bi  Bi 0.93484 0.93484 0.00000 1.0000
  Bi  Bi 0.93484 0.95000 0.00000 1.0000
  Bi  Bi 0.95000 0.93484 0.00000 1.0000
  Bi  Bi 0.96516 0.96516 0.00000 1.0000
  Bi  Bi 0.97994 0.95000 0.00000 1.0000
  Bi  Bi 0.95000 0.97994 0.00000 1.0000
  Bi  Bi 0.92006 0.92006 0.00000 1.0000
  Bi  Bi 0.92006 0.95000 0.00000 1.0000
  Bi  Bi 0.95000 0.92006 0.00000 1.0000
  Bi  Bi 0.97994 0.97994 0.00000 1.0000
  Bi  Bi 0.99292 0.95000 0.00000 1.0000
  Bi  Bi 0.95000 0.99292 0.00000 1.0000
  Bi  Bi 0.90708 0.90708 0.00000 1.0000
  Bi  Bi 0.90708 0.95000 0.00000 1.0000
  Bi  Bi 0.95000 0.90708 0.00000 1.0000
  Bi  Bi 0.99292 0.99292 0.00000 1.0000

